REMARK  Name = C:\Users\Lesc\Downloads\Yosef- proteína\Complexo.pdb
REMARK  6 active torsions:
REMARK  status: ('A' for Active; 'I' for Inactive)
REMARK    1  A    between atoms: FE_1  and  O_2
REMARK    2  A    between atoms: FE_1  and  O_3
REMARK    3  A    between atoms: FE_1  and  O_4
REMARK    4  A    between atoms: FE_1  and  O_5
REMARK    5  A    between atoms: FE_1  and  O_6
REMARK    6  A    between atoms: FE_1  and  O_7
REMARK                            x       y       z     vdW  Elec       q    Type
REMARK                         _______ _______ _______ _____ _____    ______ ____
ROOT
ATOM      1 FE   LIG     1       0.939  -0.024   0.185  0.00  0.00    +0.000 Fe
ENDROOT
BRANCH   1   2
ATOM      2  O   LIG     1       0.978   1.899   0.046  0.00  0.00    +0.000 OA
ATOM      3  H   LIG     1       0.071   2.243   0.066  0.00  0.00    +0.000 HD
ATOM      4  H   LIG     1       1.403   2.154  -0.788  0.00  0.00    +0.000 HD
ENDBRANCH   1   2
BRANCH   1   5
ATOM      5  O   LIG     1       0.837  -0.165  -1.743  0.00  0.00    +0.000 OA
ATOM      6  H   LIG     1      -0.093  -0.165  -2.018  0.00  0.00    +0.000 HD
ATOM      7  H   LIG     1       1.259  -0.990  -2.030  0.00  0.00    +0.000 HD
ENDBRANCH   1   5
BRANCH   1   8
ATOM      8  O   LIG     1      -0.993   0.020   0.292  0.00  0.00    +0.000 OA
ATOM      9  H   LIG     1      -1.356   0.350  -0.545  0.00  0.00    +0.000 HD
ATOM     10  H   LIG     1      -1.263   0.607   1.015  0.00  0.00    +0.000 HD
ENDBRANCH   1   8
BRANCH   1  11
ATOM     11  O   LIG     1       0.900  -1.943   0.337  0.00  0.00    +0.000 OA
ATOM     12  H   LIG     1      -0.020  -2.243   0.406  0.00  0.00    +0.000 HD
ATOM     13  H   LIG     1       1.389  -2.215   1.130  0.00  0.00    +0.000 HD
ENDBRANCH   1  11
BRANCH   1  14
ATOM     14  O   LIG     1       1.040   0.116   2.103  0.00  0.00    +0.000 OA
ATOM     15  H   LIG     1       0.144   0.163   2.471  0.00  0.00    +0.000 HD
ATOM     16  H   LIG     1       1.531   0.917   2.343  0.00  0.00    +0.000 HD
ENDBRANCH   1  14
BRANCH   1  17
ATOM     17  O   LIG     1       2.871  -0.074   0.094  0.00  0.00    +0.000 OA
ATOM     18  H   LIG     1       3.149  -0.149  -0.832  0.00  0.00    +0.000 HD
ATOM     19  H   LIG     1       3.199  -0.839   0.593  0.00  0.00    +0.000 HD
ENDBRANCH   1  17
TORSDOF 6
