REMARK  Name = 4212
REMARK  16 active torsions:
REMARK  status: ('A' for Active; 'I' for Inactive)
REMARK    1  A    between atoms: O_3  and  C_23
REMARK    2  A    between atoms: O_4  and  C_24
REMARK    3  A    between atoms: O_5  and  C_31
REMARK    4  A    between atoms: O_6  and  C_32
REMARK    5  A    between atoms: N_7  and  C_13
REMARK    6  A    between atoms: N_7  and  C_21
REMARK    7  A    between atoms: N_8  and  C_14
REMARK    8  A    between atoms: N_8  and  C_22
REMARK    9  A    between atoms: N_9  and  C_25
REMARK   10  A    between atoms: N_9  and  C_29
REMARK   11  A    between atoms: N_10  and  C_26
REMARK   12  A    between atoms: N_10  and  C_30
REMARK   13  A    between atoms: C_21  and  C_25
REMARK   14  A    between atoms: C_22  and  C_26
REMARK   15  A    between atoms: C_29  and  C_31
REMARK   16  A    between atoms: C_30  and  C_32
REMARK                            x       y       z     vdW  Elec       q    Type
REMARK                         _______ _______ _______ _____ _____    ______ ____
ROOT
ATOM      1  O   UNL     1      -2.672   1.782  -0.013  0.00  0.00    -0.286 OA
ATOM      2  C   UNL     1      -1.448   1.770  -0.007  0.00  0.00    +0.200 C 
ATOM      3  C   UNL     1      -0.698   3.043  -0.003  0.00  0.00    +0.078 A 
ATOM      4  C   UNL     1      -1.397   4.256  -0.006  0.00  0.00    +0.129 A 
ATOM      5  C   UNL     1      -0.697   5.463  -0.002  0.00  0.00    +0.050 A 
ATOM      6  C   UNL     1       0.696   5.463   0.005  0.00  0.00    +0.050 A 
ATOM      7  C   UNL     1       1.396   4.257   0.008  0.00  0.00    +0.129 A 
ATOM     12  C   UNL     1       0.698   3.043   0.003  0.00  0.00    +0.078 A 
ATOM     13  C   UNL     1       1.447   1.770   0.005  0.00  0.00    +0.200 C 
ATOM     14  C   UNL     1       0.698   0.497   0.001  0.00  0.00    +0.056 A 
ATOM     15  C   UNL     1       1.397  -0.717   0.004  0.00  0.00    +0.039 A 
ATOM     16  C   UNL     1       0.697  -1.924   0.000  0.00  0.00    +0.025 A 
ATOM     17  C   UNL     1      -0.696  -1.924  -0.006  0.00  0.00    +0.025 A 
ATOM     18  C   UNL     1      -1.396  -0.717  -0.009  0.00  0.00    +0.039 A 
ATOM     39  O   UNL     1       2.671   1.783   0.012  0.00  0.00    -0.286 OA
ATOM     40  C   UNL     1      -0.698   0.497  -0.005  0.00  0.00    +0.056 A 
ENDROOT
BRANCH   7   8
ATOM      8  O   UNL     1       2.757   4.333   0.016  0.00  0.00    -0.506 OA
ATOM      9  H   UNL     1       3.033   5.265   0.018  0.00  0.00    +0.292 HD
ENDBRANCH   7   8
BRANCH   4  10
ATOM     10  O   UNL     1      -2.758   4.332  -0.014  0.00  0.00    -0.506 OA
ATOM     11  H   UNL     1      -3.153   3.448  -0.020  0.00  0.00    +0.292 HD
ENDBRANCH   4  10
BRANCH  18  19
ATOM     19  N   UNL     1      -2.808  -0.801  -0.014  0.00  0.00    -0.342 N 
ATOM     20  H   UNL     1      -3.336   0.063  -0.021  0.00  0.00    +0.146 HD
BRANCH  19  21
ATOM     21  C   UNL     1      -3.508  -2.046  -0.018  0.00  0.00    +0.116 C 
BRANCH  21  22
ATOM     22  C   UNL     1      -5.009  -1.789   0.010  0.00  0.00    +0.099 C 
BRANCH  22  23
ATOM     23  N   UNL     1      -5.740  -3.050  -0.021  0.00  0.00    -0.312 NA
ATOM     24  H   UNL     1      -5.474  -3.622   0.780  0.00  0.00    +0.122 HD
BRANCH  23  25
ATOM     25  C   UNL     1      -7.178  -2.818  -0.006  0.00  0.00    +0.108 C 
BRANCH  25  26
ATOM     26  C   UNL     1      -7.934  -4.136   0.005  0.00  0.00    +0.171 C 
BRANCH  26  27
ATOM     27  O   UNL     1      -9.329  -3.863   0.037  0.00  0.00    -0.394 OA
ATOM     28  H   UNL     1      -9.788  -4.720   0.043  0.00  0.00    +0.209 HD
ENDBRANCH  26  27
ENDBRANCH  25  26
ENDBRANCH  23  25
ENDBRANCH  22  23
ENDBRANCH  21  22
ENDBRANCH  19  21
ENDBRANCH  18  19
BRANCH  15  29
ATOM     29  N   UNL     1       2.808  -0.801   0.012  0.00  0.00    -0.342 N 
ATOM     30  H   UNL     1       3.336   0.063   0.018  0.00  0.00    +0.146 HD
BRANCH  29  31
ATOM     31  C   UNL     1       3.508  -2.046   0.016  0.00  0.00    +0.116 C 
BRANCH  31  32
ATOM     32  C   UNL     1       5.009  -1.789  -0.009  0.00  0.00    +0.099 C 
BRANCH  32  33
ATOM     33  N   UNL     1       5.740  -3.050   0.022  0.00  0.00    -0.312 NA
ATOM     34  H   UNL     1       5.476  -3.621  -0.780  0.00  0.00    +0.122 HD
BRANCH  33  35
ATOM     35  C   UNL     1       7.178  -2.817   0.010  0.00  0.00    +0.108 C 
BRANCH  35  36
ATOM     36  C   UNL     1       7.935  -4.136  -0.001  0.00  0.00    +0.171 C 
BRANCH  36  37
ATOM     37  O   UNL     1       9.329  -3.862  -0.031  0.00  0.00    -0.394 OA
ATOM     38  H   UNL     1       9.516  -3.375  -0.852  0.00  0.00    +0.209 HD
ENDBRANCH  36  37
ENDBRANCH  35  36
ENDBRANCH  33  35
ENDBRANCH  32  33
ENDBRANCH  31  32
ENDBRANCH  29  31
ENDBRANCH  15  29
TORSDOF 16
