MODEL 1
REMARK VINA RESULT:      -0.0      0.000      0.000
REMARK  Name = 4212
REMARK  16 active torsions:
REMARK  status: ('A' for Active; 'I' for Inactive)
REMARK    1  A    between atoms: O_3  and  C_23
REMARK    2  A    between atoms: O_4  and  C_24
REMARK    3  A    between atoms: O_5  and  C_31
REMARK    4  A    between atoms: O_6  and  C_32
REMARK    5  A    between atoms: N_7  and  C_13
REMARK    6  A    between atoms: N_7  and  C_21
REMARK    7  A    between atoms: N_8  and  C_14
REMARK    8  A    between atoms: N_8  and  C_22
REMARK    9  A    between atoms: N_9  and  C_25
REMARK   10  A    between atoms: N_9  and  C_29
REMARK   11  A    between atoms: N_10  and  C_26
REMARK   12  A    between atoms: N_10  and  C_30
REMARK   13  A    between atoms: C_21  and  C_25
REMARK   14  A    between atoms: C_22  and  C_26
REMARK   15  A    between atoms: C_29  and  C_31
REMARK   16  A    between atoms: C_30  and  C_32
REMARK                            x       y       z     vdW  Elec       q    Type
REMARK                         _______ _______ _______ _____ _____    ______ ____
ROOT
ATOM      1  O   UNL     1     -70.004 -23.912  25.832  0.00  0.00    -0.286 OA
ATOM      2  C   UNL     1     -69.646 -23.248  24.868  0.00  0.00    +0.200 C 
ATOM      3  C   UNL     1     -70.654 -22.620  23.990  0.00  0.00    +0.078 A 
ATOM      4  C   UNL     1     -72.015 -22.791  24.269  0.00  0.00    +0.129 A 
ATOM      5  C   UNL     1     -72.974 -22.202  23.445  0.00  0.00    +0.050 A 
ATOM      6  C   UNL     1     -72.580 -21.443  22.345  0.00  0.00    +0.050 A 
ATOM      7  C   UNL     1     -71.225 -21.270  22.063  0.00  0.00    +0.129 A 
ATOM     12  C   UNL     1     -70.259 -21.861  22.887  0.00  0.00    +0.078 A 
ATOM     13  C   UNL     1     -68.826 -21.674  22.581  0.00  0.00    +0.200 C 
ATOM     14  C   UNL     1     -67.817 -22.301  23.459  0.00  0.00    +0.056 A 
ATOM     15  C   UNL     1     -66.455 -22.130  23.180  0.00  0.00    +0.039 A 
ATOM     16  C   UNL     1     -65.496 -22.720  24.004  0.00  0.00    +0.025 A 
ATOM     17  C   UNL     1     -65.890 -23.477  25.105  0.00  0.00    +0.025 A 
ATOM     18  C   UNL     1     -67.246 -23.650  25.386  0.00  0.00    +0.039 A 
ATOM     39  O   UNL     1     -68.492 -21.004  21.612  0.00  0.00    -0.286 OA
ATOM     40  C   UNL     1     -68.212 -23.060  24.562  0.00  0.00    +0.056 A 
ENDROOT
BRANCH   7   8
ATOM      8  O   UNL     1     -70.913 -20.515  20.972  0.00  0.00    -0.506 OA
ATOM      9  H   UNL     1     -71.028 -21.043  20.165  0.00  0.00    +0.292 HD
ENDBRANCH   7   8
BRANCH   4  10
ATOM     10  O   UNL     1     -72.473 -23.520  25.326  0.00  0.00    -0.506 OA
ATOM     11  H   UNL     1     -72.138 -23.165  26.161  0.00  0.00    +0.292 HD
ENDBRANCH   4  10
BRANCH  18  19
ATOM     19  N   UNL     1     -67.565 -24.432  26.521  0.00  0.00    -0.342 N 
ATOM     20  H   UNL     1     -68.151 -25.246  26.388  0.00  0.00    +0.146 HD
BRANCH  19  21
ATOM     21  C   UNL     1     -67.089 -24.122  27.831  0.00  0.00    +0.116 C 
BRANCH  21  22
ATOM     22  C   UNL     1     -67.524 -22.713  28.214  0.00  0.00    +0.099 C 
BRANCH  22  23
ATOM     23  N   UNL     1     -68.970 -22.660  28.395  0.00  0.00    -0.312 NA
ATOM     24  H   UNL     1     -69.210 -22.963  29.339  0.00  0.00    +0.122 HD
BRANCH  23  25
ATOM     25  C   UNL     1     -69.474 -21.313  28.165  0.00  0.00    +0.108 C 
BRANCH  25  26
ATOM     26  C   UNL     1     -70.982 -21.330  27.978  0.00  0.00    +0.171 C 
BRANCH  26  27
ATOM     27  O   UNL     1     -71.426 -22.680  27.956  0.00  0.00    -0.394 OA
ATOM     28  H   UNL     1     -72.390 -22.666  28.080  0.00  0.00    +0.209 HD
ENDBRANCH  26  27
ENDBRANCH  25  26
ENDBRANCH  23  25
ENDBRANCH  22  23
ENDBRANCH  21  22
ENDBRANCH  19  21
ENDBRANCH  18  19
BRANCH  15  29
ATOM     29  N   UNL     1     -65.975 -21.375  22.085  0.00  0.00    -0.342 N 
ATOM     30  H   UNL     1     -66.281 -21.637  21.156  0.00  0.00    +0.146 HD
BRANCH  29  31
ATOM     31  C   UNL     1     -65.087 -20.267  22.241  0.00  0.00    +0.116 C 
BRANCH  31  32
ATOM     32  C   UNL     1     -65.719 -19.232  23.163  0.00  0.00    +0.099 C 
BRANCH  32  33
ATOM     33  N   UNL     1     -66.867 -18.609  22.515  0.00  0.00    -0.312 NA
ATOM     34  H   UNL     1     -67.339 -19.290  21.922  0.00  0.00    +0.122 HD
BRANCH  33  35
ATOM     35  C   UNL     1     -67.800 -18.085  23.504  0.00  0.00    +0.108 C 
BRANCH  35  36
ATOM     36  C   UNL     1     -69.157 -17.817  22.872  0.00  0.00    +0.171 C 
BRANCH  36  37
ATOM     37  O   UNL     1     -69.119 -18.236  21.514  0.00  0.00    -0.394 OA
ATOM     38  H   UNL     1     -69.617 -17.584  20.991  0.00  0.00    +0.209 HD
ENDBRANCH  36  37
ENDBRANCH  35  36
ENDBRANCH  33  35
ENDBRANCH  32  33
ENDBRANCH  31  32
ENDBRANCH  29  31
ENDBRANCH  15  29
TORSDOF 16
ENDMDL
MODEL 2
REMARK VINA RESULT:      -0.0      2.562      6.598
REMARK  Name = 4212
REMARK  16 active torsions:
REMARK  status: ('A' for Active; 'I' for Inactive)
REMARK    1  A    between atoms: O_3  and  C_23
REMARK    2  A    between atoms: O_4  and  C_24
REMARK    3  A    between atoms: O_5  and  C_31
REMARK    4  A    between atoms: O_6  and  C_32
REMARK    5  A    between atoms: N_7  and  C_13
REMARK    6  A    between atoms: N_7  and  C_21
REMARK    7  A    between atoms: N_8  and  C_14
REMARK    8  A    between atoms: N_8  and  C_22
REMARK    9  A    between atoms: N_9  and  C_25
REMARK   10  A    between atoms: N_9  and  C_29
REMARK   11  A    between atoms: N_10  and  C_26
REMARK   12  A    between atoms: N_10  and  C_30
REMARK   13  A    between atoms: C_21  and  C_25
REMARK   14  A    between atoms: C_22  and  C_26
REMARK   15  A    between atoms: C_29  and  C_31
REMARK   16  A    between atoms: C_30  and  C_32
REMARK                            x       y       z     vdW  Elec       q    Type
REMARK                         _______ _______ _______ _____ _____    ______ ____
ROOT
ATOM      1  O   UNL     1     -66.808 -20.126  24.277  0.00  0.00    -0.286 OA
ATOM      2  C   UNL     1     -67.599 -20.647  25.052  0.00  0.00    +0.200 C 
ATOM      3  C   UNL     1     -67.596 -20.261  26.479  0.00  0.00    +0.078 A 
ATOM      4  C   UNL     1     -66.684 -19.300  26.932  0.00  0.00    +0.129 A 
ATOM      5  C   UNL     1     -66.674 -18.929  28.277  0.00  0.00    +0.050 A 
ATOM      6  C   UNL     1     -67.570 -19.514  29.169  0.00  0.00    +0.050 A 
ATOM      7  C   UNL     1     -68.479 -20.471  28.722  0.00  0.00    +0.129 A 
ATOM     12  C   UNL     1     -68.493 -20.847  27.373  0.00  0.00    +0.078 A 
ATOM     13  C   UNL     1     -69.459 -21.863  26.908  0.00  0.00    +0.200 C 
ATOM     14  C   UNL     1     -69.463 -22.249  25.482  0.00  0.00    +0.056 A 
ATOM     15  C   UNL     1     -70.375 -23.211  25.029  0.00  0.00    +0.039 A 
ATOM     16  C   UNL     1     -70.385 -23.581  23.684  0.00  0.00    +0.025 A 
ATOM     17  C   UNL     1     -69.490 -22.996  22.791  0.00  0.00    +0.025 A 
ATOM     18  C   UNL     1     -68.580 -22.038  23.239  0.00  0.00    +0.039 A 
ATOM     39  O   UNL     1     -70.241 -22.369  27.702  0.00  0.00    -0.286 OA
ATOM     40  C   UNL     1     -68.566 -21.663  24.588  0.00  0.00    +0.056 A 
ENDROOT
BRANCH   7   8
ATOM      8  O   UNL     1     -69.326 -20.999  29.651  0.00  0.00    -0.506 OA
ATOM      9  H   UNL     1     -70.238 -20.977  29.313  0.00  0.00    +0.292 HD
ENDBRANCH   7   8
BRANCH   4  10
ATOM     10  O   UNL     1     -65.779 -18.688  26.116  0.00  0.00    -0.506 OA
ATOM     11  H   UNL     1     -65.888 -18.980  25.199  0.00  0.00    +0.292 HD
ENDBRANCH   4  10
BRANCH  18  19
ATOM     19  N   UNL     1     -67.706 -21.490  22.271  0.00  0.00    -0.342 N 
ATOM     20  H   UNL     1     -66.709 -21.573  22.429  0.00  0.00    +0.146 HD
BRANCH  19  21
ATOM     21  C   UNL     1     -68.172 -20.840  21.088  0.00  0.00    +0.116 C 
BRANCH  21  22
ATOM     22  C   UNL     1     -69.081 -19.678  21.468  0.00  0.00    +0.099 C 
BRANCH  22  23
ATOM     23  N   UNL     1     -68.310 -18.623  22.115  0.00  0.00    -0.312 NA
ATOM     24  H   UNL     1     -67.878 -18.029  21.408  0.00  0.00    +0.122 HD
BRANCH  23  25
ATOM     25  C   UNL     1     -69.158 -17.818  22.984  0.00  0.00    +0.108 C 
BRANCH  25  26
ATOM     26  C   UNL     1     -68.315 -16.993  23.943  0.00  0.00    +0.171 C 
BRANCH  26  27
ATOM     27  O   UNL     1     -66.948 -17.338  23.762  0.00  0.00    -0.394 OA
ATOM     28  H   UNL     1     -66.420 -16.575  24.053  0.00  0.00    +0.209 HD
ENDBRANCH  26  27
ENDBRANCH  25  26
ENDBRANCH  23  25
ENDBRANCH  22  23
ENDBRANCH  21  22
ENDBRANCH  19  21
ENDBRANCH  18  19
BRANCH  15  29
ATOM     29  N   UNL     1     -71.315 -23.848  25.870  0.00  0.00    -0.342 N 
ATOM     30  H   UNL     1     -70.967 -24.347  26.680  0.00  0.00    +0.146 HD
BRANCH  29  31
ATOM     31  C   UNL     1     -72.722 -23.811  25.625  0.00  0.00    +0.116 C 
BRANCH  31  32
ATOM     32  C   UNL     1     -73.193 -22.364  25.568  0.00  0.00    +0.099 C 
BRANCH  32  33
ATOM     33  N   UNL     1     -73.095 -21.746  26.885  0.00  0.00    -0.312 NA
ATOM     34  H   UNL     1     -72.298 -22.133  27.388  0.00  0.00    +0.122 HD
BRANCH  33  35
ATOM     35  C   UNL     1     -72.953 -20.300  26.771  0.00  0.00    +0.108 C 
BRANCH  35  36
ATOM     36  C   UNL     1     -72.469 -19.704  28.083  0.00  0.00    +0.171 C 
BRANCH  36  37
ATOM     37  O   UNL     1     -72.195 -20.761  28.992  0.00  0.00    -0.394 OA
ATOM     38  H   UNL     1     -73.003 -21.298  29.072  0.00  0.00    +0.209 HD
ENDBRANCH  36  37
ENDBRANCH  35  36
ENDBRANCH  33  35
ENDBRANCH  32  33
ENDBRANCH  31  32
ENDBRANCH  29  31
ENDBRANCH  15  29
TORSDOF 16
ENDMDL
MODEL 3
REMARK VINA RESULT:      -0.0      3.529      5.862
REMARK  Name = 4212
REMARK  16 active torsions:
REMARK  status: ('A' for Active; 'I' for Inactive)
REMARK    1  A    between atoms: O_3  and  C_23
REMARK    2  A    between atoms: O_4  and  C_24
REMARK    3  A    between atoms: O_5  and  C_31
REMARK    4  A    between atoms: O_6  and  C_32
REMARK    5  A    between atoms: N_7  and  C_13
REMARK    6  A    between atoms: N_7  and  C_21
REMARK    7  A    between atoms: N_8  and  C_14
REMARK    8  A    between atoms: N_8  and  C_22
REMARK    9  A    between atoms: N_9  and  C_25
REMARK   10  A    between atoms: N_9  and  C_29
REMARK   11  A    between atoms: N_10  and  C_26
REMARK   12  A    between atoms: N_10  and  C_30
REMARK   13  A    between atoms: C_21  and  C_25
REMARK   14  A    between atoms: C_22  and  C_26
REMARK   15  A    between atoms: C_29  and  C_31
REMARK   16  A    between atoms: C_30  and  C_32
REMARK                            x       y       z     vdW  Elec       q    Type
REMARK                         _______ _______ _______ _____ _____    ______ ____
ROOT
ATOM      1  O   UNL     1     -67.525 -20.980  26.201  0.00  0.00    -0.286 OA
ATOM      2  C   UNL     1     -68.658 -20.546  26.363  0.00  0.00    +0.200 C 
ATOM      3  C   UNL     1     -69.818 -21.303  25.848  0.00  0.00    +0.078 A 
ATOM      4  C   UNL     1     -69.609 -22.514  25.177  0.00  0.00    +0.129 A 
ATOM      5  C   UNL     1     -70.699 -23.235  24.687  0.00  0.00    +0.050 A 
ATOM      6  C   UNL     1     -71.993 -22.752  24.865  0.00  0.00    +0.050 A 
ATOM      7  C   UNL     1     -72.205 -21.546  25.532  0.00  0.00    +0.129 A 
ATOM     12  C   UNL     1     -71.115 -20.818  26.025  0.00  0.00    +0.078 A 
ATOM     13  C   UNL     1     -71.348 -19.542  26.729  0.00  0.00    +0.200 C 
ATOM     14  C   UNL     1     -70.189 -18.785  27.245  0.00  0.00    +0.056 A 
ATOM     15  C   UNL     1     -70.397 -17.573  27.916  0.00  0.00    +0.039 A 
ATOM     16  C   UNL     1     -69.308 -16.852  28.406  0.00  0.00    +0.025 A 
ATOM     17  C   UNL     1     -68.013 -17.335  28.229  0.00  0.00    +0.025 A 
ATOM     18  C   UNL     1     -67.802 -18.542  27.561  0.00  0.00    +0.039 A 
ATOM     39  O   UNL     1     -72.490 -19.128  26.880  0.00  0.00    -0.286 OA
ATOM     40  C   UNL     1     -68.892 -19.269  27.068  0.00  0.00    +0.056 A 
ENDROOT
BRANCH   7   8
ATOM      8  O   UNL     1     -73.498 -21.136  25.670  0.00  0.00    -0.506 OA
ATOM      9  H   UNL     1     -73.971 -21.256  24.830  0.00  0.00    +0.292 HD
ENDBRANCH   7   8
BRANCH   4  10
ATOM     10  O   UNL     1     -68.372 -23.046  24.966  0.00  0.00    -0.506 OA
ATOM     11  H   UNL     1     -68.432 -23.992  24.771  0.00  0.00    +0.292 HD
ENDBRANCH   4  10
BRANCH  18  19
ATOM     19  N   UNL     1     -66.459 -18.965  27.423  0.00  0.00    -0.342 N 
ATOM     20  H   UNL     1     -66.208 -19.876  27.786  0.00  0.00    +0.146 HD
BRANCH  19  21
ATOM     21  C   UNL     1     -65.458 -18.167  26.790  0.00  0.00    +0.116 C 
BRANCH  21  22
ATOM     22  C   UNL     1     -65.894 -17.831  25.370  0.00  0.00    +0.099 C 
BRANCH  22  23
ATOM     23  N   UNL     1     -65.895 -19.032  24.543  0.00  0.00    -0.312 NA
ATOM     24  H   UNL     1     -66.148 -19.841  25.111  0.00  0.00    +0.122 HD
BRANCH  23  25
ATOM     25  C   UNL     1     -66.828 -18.898  23.432  0.00  0.00    +0.108 C 
BRANCH  25  26
ATOM     26  C   UNL     1     -67.116 -20.252  22.807  0.00  0.00    +0.171 C 
BRANCH  26  27
ATOM     27  O   UNL     1     -66.473 -21.259  23.579  0.00  0.00    -0.394 OA
ATOM     28  H   UNL     1     -65.675 -21.526  23.092  0.00  0.00    +0.209 HD
ENDBRANCH  26  27
ENDBRANCH  25  26
ENDBRANCH  23  25
ENDBRANCH  22  23
ENDBRANCH  21  22
ENDBRANCH  19  21
ENDBRANCH  18  19
BRANCH  15  29
ATOM     29  N   UNL     1     -71.678 -17.017  28.137  0.00  0.00    -0.342 N 
ATOM     30  H   UNL     1     -72.359 -17.575  28.637  0.00  0.00    +0.146 HD
BRANCH  29  31
ATOM     31  C   UNL     1     -72.041 -15.711  27.688  0.00  0.00    +0.116 C 
BRANCH  31  32
ATOM     32  C   UNL     1     -71.846 -15.615  26.181  0.00  0.00    +0.099 C 
BRANCH  32  33
ATOM     33  N   UNL     1     -72.817 -16.454  25.489  0.00  0.00    -0.312 NA
ATOM     34  H   UNL     1     -73.697 -15.950  25.387  0.00  0.00    +0.122 HD
BRANCH  33  35
ATOM     35  C   UNL     1     -72.320 -16.850  24.178  0.00  0.00    +0.108 C 
BRANCH  35  36
ATOM     36  C   UNL     1     -73.125 -18.018  23.630  0.00  0.00    +0.171 C 
BRANCH  36  37
ATOM     37  O   UNL     1     -74.058 -18.433  24.618  0.00  0.00    -0.394 OA
ATOM     38  H   UNL     1     -74.226 -19.382  24.486  0.00  0.00    +0.209 HD
ENDBRANCH  36  37
ENDBRANCH  35  36
ENDBRANCH  33  35
ENDBRANCH  32  33
ENDBRANCH  31  32
ENDBRANCH  29  31
ENDBRANCH  15  29
TORSDOF 16
ENDMDL
MODEL 4
REMARK VINA RESULT:      -0.0      2.431      6.166
REMARK  Name = 4212
REMARK  16 active torsions:
REMARK  status: ('A' for Active; 'I' for Inactive)
REMARK    1  A    between atoms: O_3  and  C_23
REMARK    2  A    between atoms: O_4  and  C_24
REMARK    3  A    between atoms: O_5  and  C_31
REMARK    4  A    between atoms: O_6  and  C_32
REMARK    5  A    between atoms: N_7  and  C_13
REMARK    6  A    between atoms: N_7  and  C_21
REMARK    7  A    between atoms: N_8  and  C_14
REMARK    8  A    between atoms: N_8  and  C_22
REMARK    9  A    between atoms: N_9  and  C_25
REMARK   10  A    between atoms: N_9  and  C_29
REMARK   11  A    between atoms: N_10  and  C_26
REMARK   12  A    between atoms: N_10  and  C_30
REMARK   13  A    between atoms: C_21  and  C_25
REMARK   14  A    between atoms: C_22  and  C_26
REMARK   15  A    between atoms: C_29  and  C_31
REMARK   16  A    between atoms: C_30  and  C_32
REMARK                            x       y       z     vdW  Elec       q    Type
REMARK                         _______ _______ _______ _____ _____    ______ ____
ROOT
ATOM      1  O   UNL     1     -70.670 -20.900  21.955  0.00  0.00    -0.286 OA
ATOM      2  C   UNL     1     -70.033 -21.366  22.892  0.00  0.00    +0.200 C 
ATOM      3  C   UNL     1     -68.562 -21.470  22.804  0.00  0.00    +0.078 A 
ATOM      4  C   UNL     1     -67.907 -21.033  21.646  0.00  0.00    +0.129 A 
ATOM      5  C   UNL     1     -66.518 -21.127  21.554  0.00  0.00    +0.050 A 
ATOM      6  C   UNL     1     -65.782 -21.655  22.613  0.00  0.00    +0.050 A 
ATOM      7  C   UNL     1     -66.431 -22.091  23.768  0.00  0.00    +0.129 A 
ATOM     12  C   UNL     1     -67.825 -21.999  23.864  0.00  0.00    +0.078 A 
ATOM     13  C   UNL     1     -68.504 -22.465  25.090  0.00  0.00    +0.200 C 
ATOM     14  C   UNL     1     -69.975 -22.361  25.179  0.00  0.00    +0.056 A 
ATOM     15  C   UNL     1     -70.630 -22.798  26.337  0.00  0.00    +0.039 A 
ATOM     16  C   UNL     1     -72.019 -22.704  26.429  0.00  0.00    +0.025 A 
ATOM     17  C   UNL     1     -72.755 -22.175  25.371  0.00  0.00    +0.025 A 
ATOM     18  C   UNL     1     -72.106 -21.739  24.215  0.00  0.00    +0.039 A 
ATOM     39  O   UNL     1     -67.846 -22.926  26.014  0.00  0.00    -0.286 OA
ATOM     40  C   UNL     1     -70.712 -21.831  24.119  0.00  0.00    +0.056 A 
ENDROOT
BRANCH   7   8
ATOM      8  O   UNL     1     -65.647 -22.595  24.763  0.00  0.00    -0.506 OA
ATOM      9  H   UNL     1     -64.961 -21.948  24.999  0.00  0.00    +0.292 HD
ENDBRANCH   7   8
BRANCH   4  10
ATOM     10  O   UNL     1     -68.562 -20.508  20.572  0.00  0.00    -0.506 OA
ATOM     11  H   UNL     1     -69.065 -21.192  20.106  0.00  0.00    +0.292 HD
ENDBRANCH   4  10
BRANCH  18  19
ATOM     19  N   UNL     1     -72.923 -21.214  23.187  0.00  0.00    -0.342 N 
ATOM     20  H   UNL     1     -72.874 -21.647  22.273  0.00  0.00    +0.146 HD
BRANCH  19  21
ATOM     21  C   UNL     1     -73.810 -20.114  23.390  0.00  0.00    +0.116 C 
BRANCH  21  22
ATOM     22  C   UNL     1     -73.025 -18.909  23.893  0.00  0.00    +0.099 C 
BRANCH  22  23
ATOM     23  N   UNL     1     -72.145 -18.405  22.845  0.00  0.00    -0.312 NA
ATOM     24  H   UNL     1     -72.666 -17.780  22.231  0.00  0.00    +0.122 HD
BRANCH  23  25
ATOM     25  C   UNL     1     -71.007 -17.699  23.418  0.00  0.00    +0.108 C 
BRANCH  25  26
ATOM     26  C   UNL     1     -69.912 -17.516  22.380  0.00  0.00    +0.171 C 
BRANCH  26  27
ATOM     27  O   UNL     1     -70.293 -18.194  21.189  0.00  0.00    -0.394 OA
ATOM     28  H   UNL     1     -71.202 -17.919  20.982  0.00  0.00    +0.209 HD
ENDBRANCH  26  27
ENDBRANCH  25  26
ENDBRANCH  23  25
ENDBRANCH  22  23
ENDBRANCH  21  22
ENDBRANCH  19  21
ENDBRANCH  18  19
BRANCH  15  29
ATOM     29  N   UNL     1     -69.956 -23.343  27.453  0.00  0.00    -0.342 N 
ATOM     30  H   UNL     1     -69.367 -24.154  27.304  0.00  0.00    +0.146 HD
BRANCH  29  31
ATOM     31  C   UNL     1     -70.069 -22.797  28.768  0.00  0.00    +0.116 C 
BRANCH  31  32
ATOM     32  C   UNL     1     -69.645 -21.334  28.753  0.00  0.00    +0.099 C 
BRANCH  32  33
ATOM     33  N   UNL     1     -68.213 -21.225  28.498  0.00  0.00    -0.312 NA
ATOM     34  H   UNL     1     -67.915 -21.977  27.879  0.00  0.00    +0.122 HD
BRANCH  33  35
ATOM     35  C   UNL     1     -67.889 -19.936  27.901  0.00  0.00    +0.108 C 
BRANCH  35  36
ATOM     36  C   UNL     1     -66.498 -19.964  27.288  0.00  0.00    +0.171 C 
BRANCH  36  37
ATOM     37  O   UNL     1     -65.981 -21.284  27.388  0.00  0.00    -0.394 OA
ATOM     38  H   UNL     1     -66.637 -21.822  27.863  0.00  0.00    +0.209 HD
ENDBRANCH  36  37
ENDBRANCH  35  36
ENDBRANCH  33  35
ENDBRANCH  32  33
ENDBRANCH  31  32
ENDBRANCH  29  31
ENDBRANCH  15  29
TORSDOF 16
ENDMDL
MODEL 5
REMARK VINA RESULT:      -0.0      3.023      4.814
REMARK  Name = 4212
REMARK  16 active torsions:
REMARK  status: ('A' for Active; 'I' for Inactive)
REMARK    1  A    between atoms: O_3  and  C_23
REMARK    2  A    between atoms: O_4  and  C_24
REMARK    3  A    between atoms: O_5  and  C_31
REMARK    4  A    between atoms: O_6  and  C_32
REMARK    5  A    between atoms: N_7  and  C_13
REMARK    6  A    between atoms: N_7  and  C_21
REMARK    7  A    between atoms: N_8  and  C_14
REMARK    8  A    between atoms: N_8  and  C_22
REMARK    9  A    between atoms: N_9  and  C_25
REMARK   10  A    between atoms: N_9  and  C_29
REMARK   11  A    between atoms: N_10  and  C_26
REMARK   12  A    between atoms: N_10  and  C_30
REMARK   13  A    between atoms: C_21  and  C_25
REMARK   14  A    between atoms: C_22  and  C_26
REMARK   15  A    between atoms: C_29  and  C_31
REMARK   16  A    between atoms: C_30  and  C_32
REMARK                            x       y       z     vdW  Elec       q    Type
REMARK                         _______ _______ _______ _____ _____    ______ ____
ROOT
ATOM      1  O   UNL     1     -68.768 -21.076  22.517  0.00  0.00    -0.286 OA
ATOM      2  C   UNL     1     -68.990 -19.914  22.830  0.00  0.00    +0.200 C 
ATOM      3  C   UNL     1     -70.022 -19.140  22.109  0.00  0.00    +0.078 A 
ATOM      4  C   UNL     1     -70.739 -19.746  21.071  0.00  0.00    +0.129 A 
ATOM      5  C   UNL     1     -71.716 -19.023  20.385  0.00  0.00    +0.050 A 
ATOM      6  C   UNL     1     -71.977 -17.700  20.731  0.00  0.00    +0.050 A 
ATOM      7  C   UNL     1     -71.265 -17.092  21.764  0.00  0.00    +0.129 A 
ATOM     12  C   UNL     1     -70.283 -17.813  22.455  0.00  0.00    +0.078 A 
ATOM     13  C   UNL     1     -69.532 -17.162  23.547  0.00  0.00    +0.200 C 
ATOM     14  C   UNL     1     -68.500 -17.935  24.268  0.00  0.00    +0.056 A 
ATOM     15  C   UNL     1     -67.782 -17.328  25.307  0.00  0.00    +0.039 A 
ATOM     16  C   UNL     1     -66.805 -18.051  25.993  0.00  0.00    +0.025 A 
ATOM     17  C   UNL     1     -66.545 -19.376  25.648  0.00  0.00    +0.025 A 
ATOM     18  C   UNL     1     -67.258 -19.983  24.614  0.00  0.00    +0.039 A 
ATOM     39  O   UNL     1     -69.772 -15.998  23.842  0.00  0.00    -0.286 OA
ATOM     40  C   UNL     1     -68.239 -19.262  23.922  0.00  0.00    +0.056 A 
ENDROOT
BRANCH   7   8
ATOM      8  O   UNL     1     -71.574 -15.795  22.048  0.00  0.00    -0.506 OA
ATOM      9  H   UNL     1     -70.767 -15.312  22.294  0.00  0.00    +0.292 HD
ENDBRANCH   7   8
BRANCH   4  10
ATOM     10  O   UNL     1     -70.536 -21.036  20.678  0.00  0.00    -0.506 OA
ATOM     11  H   UNL     1     -70.472 -21.097  19.714  0.00  0.00    +0.292 HD
ENDBRANCH   4  10
BRANCH  18  19
ATOM     19  N   UNL     1     -66.935 -21.329  24.325  0.00  0.00    -0.342 N 
ATOM     20  H   UNL     1     -66.639 -21.556  23.383  0.00  0.00    +0.146 HD
BRANCH  19  21
ATOM     21  C   UNL     1     -67.004 -22.368  25.303  0.00  0.00    +0.116 C 
BRANCH  21  22
ATOM     22  C   UNL     1     -68.413 -22.438  25.877  0.00  0.00    +0.099 C 
BRANCH  22  23
ATOM     23  N   UNL     1     -69.350 -22.908  24.864  0.00  0.00    -0.312 NA
ATOM     24  H   UNL     1     -69.339 -23.927  24.831  0.00  0.00    +0.122 HD
BRANCH  23  25
ATOM     25  C   UNL     1     -70.700 -22.438  25.146  0.00  0.00    +0.108 C 
BRANCH  25  26
ATOM     26  C   UNL     1     -71.588 -22.591  23.923  0.00  0.00    +0.171 C 
BRANCH  26  27
ATOM     27  O   UNL     1     -70.793 -23.041  22.833  0.00  0.00    -0.394 OA
ATOM     28  H   UNL     1     -70.759 -24.011  22.885  0.00  0.00    +0.209 HD
ENDBRANCH  26  27
ENDBRANCH  25  26
ENDBRANCH  23  25
ENDBRANCH  22  23
ENDBRANCH  21  22
ENDBRANCH  19  21
ENDBRANCH  18  19
BRANCH  15  29
ATOM     29  N   UNL     1     -67.989 -15.992  25.718  0.00  0.00    -0.342 N 
ATOM     30  H   UNL     1     -67.890 -15.260  25.025  0.00  0.00    +0.146 HD
BRANCH  29  31
ATOM     31  C   UNL     1     -68.332 -15.640  27.059  0.00  0.00    +0.116 C 
BRANCH  31  32
ATOM     32  C   UNL     1     -69.613 -16.357  27.464  0.00  0.00    +0.099 C 
BRANCH  32  33
ATOM     33  N   UNL     1     -70.746 -15.836  26.710  0.00  0.00    -0.312 NA
ATOM     34  H   UNL     1     -70.442 -15.562  25.777  0.00  0.00    +0.122 HD
BRANCH  33  35
ATOM     35  C   UNL     1     -71.806 -16.831  26.611  0.00  0.00    +0.108 C 
BRANCH  35  36
ATOM     36  C   UNL     1     -72.801 -16.449  25.526  0.00  0.00    +0.171 C 
BRANCH  36  37
ATOM     37  O   UNL     1     -72.325 -15.288  24.859  0.00  0.00    -0.394 OA
ATOM     38  H   UNL     1     -71.890 -15.576  24.038  0.00  0.00    +0.209 HD
ENDBRANCH  36  37
ENDBRANCH  35  36
ENDBRANCH  33  35
ENDBRANCH  32  33
ENDBRANCH  31  32
ENDBRANCH  29  31
ENDBRANCH  15  29
TORSDOF 16
ENDMDL
MODEL 6
REMARK VINA RESULT:      -0.0      3.394      6.586
REMARK  Name = 4212
REMARK  16 active torsions:
REMARK  status: ('A' for Active; 'I' for Inactive)
REMARK    1  A    between atoms: O_3  and  C_23
REMARK    2  A    between atoms: O_4  and  C_24
REMARK    3  A    between atoms: O_5  and  C_31
REMARK    4  A    between atoms: O_6  and  C_32
REMARK    5  A    between atoms: N_7  and  C_13
REMARK    6  A    between atoms: N_7  and  C_21
REMARK    7  A    between atoms: N_8  and  C_14
REMARK    8  A    between atoms: N_8  and  C_22
REMARK    9  A    between atoms: N_9  and  C_25
REMARK   10  A    between atoms: N_9  and  C_29
REMARK   11  A    between atoms: N_10  and  C_26
REMARK   12  A    between atoms: N_10  and  C_30
REMARK   13  A    between atoms: C_21  and  C_25
REMARK   14  A    between atoms: C_22  and  C_26
REMARK   15  A    between atoms: C_29  and  C_31
REMARK   16  A    between atoms: C_30  and  C_32
REMARK                            x       y       z     vdW  Elec       q    Type
REMARK                         _______ _______ _______ _____ _____    ______ ____
ROOT
ATOM      1  O   UNL     1     -72.941 -18.901  23.625  0.00  0.00    -0.286 OA
ATOM      2  C   UNL     1     -72.132 -19.456  24.357  0.00  0.00    +0.200 C 
ATOM      3  C   UNL     1     -71.146 -20.397  23.786  0.00  0.00    +0.078 A 
ATOM      4  C   UNL     1     -71.145 -20.645  22.409  0.00  0.00    +0.129 A 
ATOM      5  C   UNL     1     -70.217 -21.531  21.861  0.00  0.00    +0.050 A 
ATOM      6  C   UNL     1     -69.291 -22.169  22.683  0.00  0.00    +0.050 A 
ATOM      7  C   UNL     1     -69.288 -21.925  24.056  0.00  0.00    +0.129 A 
ATOM     12  C   UNL     1     -70.218 -21.037  24.610  0.00  0.00    +0.078 A 
ATOM     13  C   UNL     1     -70.210 -20.785  26.066  0.00  0.00    +0.200 C 
ATOM     14  C   UNL     1     -71.196 -19.845  26.637  0.00  0.00    +0.056 A 
ATOM     15  C   UNL     1     -71.197 -19.597  28.015  0.00  0.00    +0.039 A 
ATOM     16  C   UNL     1     -72.125 -18.710  28.563  0.00  0.00    +0.025 A 
ATOM     17  C   UNL     1     -73.050 -18.071  27.741  0.00  0.00    +0.025 A 
ATOM     18  C   UNL     1     -73.052 -18.316  26.367  0.00  0.00    +0.039 A 
ATOM     39  O   UNL     1     -69.391 -21.351  26.778  0.00  0.00    -0.286 OA
ATOM     40  C   UNL     1     -72.123 -19.205  25.813  0.00  0.00    +0.056 A 
ENDROOT
BRANCH   7   8
ATOM      8  O   UNL     1     -68.354 -22.584  24.799  0.00  0.00    -0.506 OA
ATOM      9  H   UNL     1     -67.599 -22.825  24.236  0.00  0.00    +0.292 HD
ENDBRANCH   7   8
BRANCH   4  10
ATOM     10  O   UNL     1     -72.021 -20.057  21.545  0.00  0.00    -0.506 OA
ATOM     11  H   UNL     1     -71.563 -19.736  20.754  0.00  0.00    +0.292 HD
ENDBRANCH   4  10
BRANCH  18  19
ATOM     19  N   UNL     1     -74.022 -17.628  25.600  0.00  0.00    -0.342 N 
ATOM     20  H   UNL     1     -74.666 -18.177  25.045  0.00  0.00    +0.146 HD
BRANCH  19  21
ATOM     21  C   UNL     1     -74.129 -16.204  25.588  0.00  0.00    +0.116 C 
BRANCH  21  22
ATOM     22  C   UNL     1     -72.804 -15.595  25.146  0.00  0.00    +0.099 C 
BRANCH  22  23
ATOM     23  N   UNL     1     -72.551 -15.896  23.743  0.00  0.00    -0.312 NA
ATOM     24  H   UNL     1     -73.032 -15.217  23.153  0.00  0.00    +0.122 HD
BRANCH  23  25
ATOM     25  C   UNL     1     -71.123 -15.874  23.455  0.00  0.00    +0.108 C 
BRANCH  25  26
ATOM     26  C   UNL     1     -70.832 -16.552  22.127  0.00  0.00    +0.171 C 
BRANCH  26  27
ATOM     27  O   UNL     1     -72.041 -17.104  21.621  0.00  0.00    -0.394 OA
ATOM     28  H   UNL     1     -71.797 -17.858  21.058  0.00  0.00    +0.209 HD
ENDBRANCH  26  27
ENDBRANCH  25  26
ENDBRANCH  23  25
ENDBRANCH  22  23
ENDBRANCH  21  22
ENDBRANCH  19  21
ENDBRANCH  18  19
BRANCH  15  29
ATOM     29  N   UNL     1     -70.291 -20.203  28.915  0.00  0.00    -0.342 N 
ATOM     30  H   UNL     1     -70.259 -21.215  28.948  0.00  0.00    +0.146 HD
BRANCH  29  31
ATOM     31  C   UNL     1     -69.425 -19.450  29.765  0.00  0.00    +0.116 C 
BRANCH  31  32
ATOM     32  C   UNL     1     -68.554 -18.528  28.922  0.00  0.00    +0.099 C 
BRANCH  32  33
ATOM     33  N   UNL     1     -67.606 -19.308  28.134  0.00  0.00    -0.312 NA
ATOM     34  H   UNL     1     -68.028 -20.197  27.870  0.00  0.00    +0.122 HD
BRANCH  33  35
ATOM     35  C   UNL     1     -67.202 -18.579  26.939  0.00  0.00    +0.108 C 
BRANCH  35  36
ATOM     36  C   UNL     1     -66.539 -19.514  25.939  0.00  0.00    +0.171 C 
BRANCH  36  37
ATOM     37  O   UNL     1     -66.618 -20.843  26.436  0.00  0.00    -0.394 OA
ATOM     38  H   UNL     1     -66.585 -20.798  27.407  0.00  0.00    +0.209 HD
ENDBRANCH  36  37
ENDBRANCH  35  36
ENDBRANCH  33  35
ENDBRANCH  32  33
ENDBRANCH  31  32
ENDBRANCH  29  31
ENDBRANCH  15  29
TORSDOF 16
ENDMDL
MODEL 7
REMARK VINA RESULT:      -0.0      3.433      6.497
REMARK  Name = 4212
REMARK  16 active torsions:
REMARK  status: ('A' for Active; 'I' for Inactive)
REMARK    1  A    between atoms: O_3  and  C_23
REMARK    2  A    between atoms: O_4  and  C_24
REMARK    3  A    between atoms: O_5  and  C_31
REMARK    4  A    between atoms: O_6  and  C_32
REMARK    5  A    between atoms: N_7  and  C_13
REMARK    6  A    between atoms: N_7  and  C_21
REMARK    7  A    between atoms: N_8  and  C_14
REMARK    8  A    between atoms: N_8  and  C_22
REMARK    9  A    between atoms: N_9  and  C_25
REMARK   10  A    between atoms: N_9  and  C_29
REMARK   11  A    between atoms: N_10  and  C_26
REMARK   12  A    between atoms: N_10  and  C_30
REMARK   13  A    between atoms: C_21  and  C_25
REMARK   14  A    between atoms: C_22  and  C_26
REMARK   15  A    between atoms: C_29  and  C_31
REMARK   16  A    between atoms: C_30  and  C_32
REMARK                            x       y       z     vdW  Elec       q    Type
REMARK                         _______ _______ _______ _____ _____    ______ ____
ROOT
ATOM      1  O   UNL     1     -67.171 -20.803  26.881  0.00  0.00    -0.286 OA
ATOM      2  C   UNL     1     -68.121 -20.067  27.112  0.00  0.00    +0.200 C 
ATOM      3  C   UNL     1     -68.066 -18.645  26.713  0.00  0.00    +0.078 A 
ATOM      4  C   UNL     1     -66.924 -18.152  26.072  0.00  0.00    +0.129 A 
ATOM      5  C   UNL     1     -66.863 -16.811  25.691  0.00  0.00    +0.050 A 
ATOM      6  C   UNL     1     -67.938 -15.962  25.948  0.00  0.00    +0.050 A 
ATOM      7  C   UNL     1     -69.078 -16.450  26.587  0.00  0.00    +0.129 A 
ATOM     12  C   UNL     1     -69.143 -17.795  26.972  0.00  0.00    +0.078 A 
ATOM     13  C   UNL     1     -70.353 -18.303  27.648  0.00  0.00    +0.200 C 
ATOM     14  C   UNL     1     -70.408 -19.724  28.048  0.00  0.00    +0.056 A 
ATOM     15  C   UNL     1     -71.551 -20.218  28.689  0.00  0.00    +0.039 A 
ATOM     16  C   UNL     1     -71.612 -21.559  29.070  0.00  0.00    +0.025 A 
ATOM     17  C   UNL     1     -70.538 -22.408  28.812  0.00  0.00    +0.025 A 
ATOM     18  C   UNL     1     -69.397 -21.919  28.173  0.00  0.00    +0.039 A 
ATOM     39  O   UNL     1     -71.291 -17.548  27.868  0.00  0.00    -0.286 OA
ATOM     40  C   UNL     1     -69.332 -20.574  27.789  0.00  0.00    +0.056 A 
ENDROOT
BRANCH   7   8
ATOM      8  O   UNL     1     -70.090 -15.564  26.805  0.00  0.00    -0.506 OA
ATOM      9  H   UNL     1     -70.465 -15.706  27.690  0.00  0.00    +0.292 HD
ENDBRANCH   7   8
BRANCH   4  10
ATOM     10  O   UNL     1     -65.836 -18.923  25.790  0.00  0.00    -0.506 OA
ATOM     11  H   UNL     1     -65.052 -18.373  25.642  0.00  0.00    +0.292 HD
ENDBRANCH   4  10
BRANCH  18  19
ATOM     19  N   UNL     1     -68.351 -22.844  27.946  0.00  0.00    -0.342 N 
ATOM     20  H   UNL     1     -67.438 -22.632  28.330  0.00  0.00    +0.146 HD
BRANCH  19  21
ATOM     21  C   UNL     1     -68.535 -24.054  27.211  0.00  0.00    +0.116 C 
BRANCH  21  22
ATOM     22  C   UNL     1     -69.056 -23.732  25.817  0.00  0.00    +0.099 C 
BRANCH  22  23
ATOM     23  N   UNL     1     -68.029 -23.052  25.036  0.00  0.00    -0.312 NA
ATOM     24  H   UNL     1     -67.403 -23.740  24.618  0.00  0.00    +0.122 HD
BRANCH  23  25
ATOM     25  C   UNL     1     -68.627 -22.231  23.993  0.00  0.00    +0.108 C 
BRANCH  25  26
ATOM     26  C   UNL     1     -67.614 -21.241  23.443  0.00  0.00    +0.171 C 
BRANCH  26  27
ATOM     27  O   UNL     1     -66.415 -21.345  24.199  0.00  0.00    -0.394 OA
ATOM     28  H   UNL     1     -66.239 -22.292  24.326  0.00  0.00    +0.209 HD
ENDBRANCH  26  27
ENDBRANCH  25  26
ENDBRANCH  23  25
ENDBRANCH  22  23
ENDBRANCH  21  22
ENDBRANCH  19  21
ENDBRANCH  18  19
BRANCH  15  29
ATOM     29  N   UNL     1     -72.682 -19.422  28.984  0.00  0.00    -0.342 N 
ATOM     30  H   UNL     1     -72.545 -18.592  29.547  0.00  0.00    +0.146 HD
BRANCH  29  31
ATOM     31  C   UNL     1     -73.994 -19.742  28.519  0.00  0.00    +0.116 C 
BRANCH  31  32
ATOM     32  C   UNL     1     -73.990 -19.836  26.999  0.00  0.00    +0.099 C 
BRANCH  32  33
ATOM     33  N   UNL     1     -73.767 -18.520  26.411  0.00  0.00    -0.312 NA
ATOM     34  H   UNL     1     -73.156 -17.972  27.014  0.00  0.00    +0.122 HD
BRANCH  33  35
ATOM     35  C   UNL     1     -73.177 -18.638  25.084  0.00  0.00    +0.108 C 
BRANCH  35  36
ATOM     36  C   UNL     1     -72.598 -17.306  24.635  0.00  0.00    +0.171 C 
BRANCH  36  37
ATOM     37  O   UNL     1     -72.707 -16.376  25.704  0.00  0.00    -0.394 OA
ATOM     38  H   UNL     1     -72.556 -15.487  25.339  0.00  0.00    +0.209 HD
ENDBRANCH  36  37
ENDBRANCH  35  36
ENDBRANCH  33  35
ENDBRANCH  32  33
ENDBRANCH  31  32
ENDBRANCH  29  31
ENDBRANCH  15  29
TORSDOF 16
ENDMDL
MODEL 8
REMARK VINA RESULT:      -0.0      3.055      7.159
REMARK  Name = 4212
REMARK  16 active torsions:
REMARK  status: ('A' for Active; 'I' for Inactive)
REMARK    1  A    between atoms: O_3  and  C_23
REMARK    2  A    between atoms: O_4  and  C_24
REMARK    3  A    between atoms: O_5  and  C_31
REMARK    4  A    between atoms: O_6  and  C_32
REMARK    5  A    between atoms: N_7  and  C_13
REMARK    6  A    between atoms: N_7  and  C_21
REMARK    7  A    between atoms: N_8  and  C_14
REMARK    8  A    between atoms: N_8  and  C_22
REMARK    9  A    between atoms: N_9  and  C_25
REMARK   10  A    between atoms: N_9  and  C_29
REMARK   11  A    between atoms: N_10  and  C_26
REMARK   12  A    between atoms: N_10  and  C_30
REMARK   13  A    between atoms: C_21  and  C_25
REMARK   14  A    between atoms: C_22  and  C_26
REMARK   15  A    between atoms: C_29  and  C_31
REMARK   16  A    between atoms: C_30  and  C_32
REMARK                            x       y       z     vdW  Elec       q    Type
REMARK                         _______ _______ _______ _____ _____    ______ ____
ROOT
ATOM      1  O   UNL     1     -68.064 -18.926  23.019  0.00  0.00    -0.286 OA
ATOM      2  C   UNL     1     -68.510 -19.467  24.023  0.00  0.00    +0.200 C 
ATOM      3  C   UNL     1     -67.791 -20.608  24.627  0.00  0.00    +0.078 A 
ATOM      4  C   UNL     1     -66.601 -21.061  24.044  0.00  0.00    +0.129 A 
ATOM      5  C   UNL     1     -65.916 -22.137  24.608  0.00  0.00    +0.050 A 
ATOM      6  C   UNL     1     -66.413 -22.761  25.750  0.00  0.00    +0.050 A 
ATOM      7  C   UNL     1     -67.597 -22.313  26.334  0.00  0.00    +0.129 A 
ATOM     12  C   UNL     1     -68.290 -21.234  25.771  0.00  0.00    +0.078 A 
ATOM     13  C   UNL     1     -69.544 -20.766  26.394  0.00  0.00    +0.200 C 
ATOM     14  C   UNL     1     -70.264 -19.626  25.791  0.00  0.00    +0.056 A 
ATOM     15  C   UNL     1     -71.454 -19.172  26.373  0.00  0.00    +0.039 A 
ATOM     16  C   UNL     1     -72.140 -18.096  25.809  0.00  0.00    +0.025 A 
ATOM     17  C   UNL     1     -71.642 -17.471  24.668  0.00  0.00    +0.025 A 
ATOM     18  C   UNL     1     -70.457 -17.920  24.084  0.00  0.00    +0.039 A 
ATOM     39  O   UNL     1     -69.970 -21.322  27.398  0.00  0.00    -0.286 OA
ATOM     40  C   UNL     1     -69.765 -19.000  24.647  0.00  0.00    +0.056 A 
ENDROOT
BRANCH   7   8
ATOM      8  O   UNL     1     -68.023 -22.970  27.449  0.00  0.00    -0.506 OA
ATOM      9  H   UNL     1     -67.488 -23.771  27.582  0.00  0.00    +0.292 HD
ENDBRANCH   7   8
BRANCH   4  10
ATOM     10  O   UNL     1     -66.058 -20.499  22.927  0.00  0.00    -0.506 OA
ATOM     11  H   UNL     1     -66.106 -19.533  22.968  0.00  0.00    +0.292 HD
ENDBRANCH   4  10
BRANCH  18  19
ATOM     19  N   UNL     1     -70.017 -17.233  22.929  0.00  0.00    -0.342 N 
ATOM     20  H   UNL     1     -69.879 -17.768  22.081  0.00  0.00    +0.146 HD
BRANCH  19  21
ATOM     21  C   UNL     1     -69.772 -15.826  22.913  0.00  0.00    +0.116 C 
BRANCH  21  22
ATOM     22  C   UNL     1     -68.735 -15.475  23.972  0.00  0.00    +0.099 C 
BRANCH  22  23
ATOM     23  N   UNL     1     -67.433 -16.018  23.606  0.00  0.00    -0.312 NA
ATOM     24  H   UNL     1     -66.960 -15.378  22.967  0.00  0.00    +0.122 HD
BRANCH  23  25
ATOM     25  C   UNL     1     -66.608 -16.234  24.787  0.00  0.00    +0.108 C 
BRANCH  25  26
ATOM     26  C   UNL     1     -65.430 -17.137  24.461  0.00  0.00    +0.171 C 
BRANCH  26  27
ATOM     27  O   UNL     1     -65.560 -17.593  23.121  0.00  0.00    -0.394 OA
ATOM     28  H   UNL     1     -65.800 -18.535  23.162  0.00  0.00    +0.209 HD
ENDBRANCH  26  27
ENDBRANCH  25  26
ENDBRANCH  23  25
ENDBRANCH  22  23
ENDBRANCH  21  22
ENDBRANCH  19  21
ENDBRANCH  18  19
BRANCH  15  29
ATOM     29  N   UNL     1     -72.022 -19.751  27.531  0.00  0.00    -0.342 N 
ATOM     30  H   UNL     1     -72.236 -20.740  27.512  0.00  0.00    +0.146 HD
BRANCH  29  31
ATOM     31  C   UNL     1     -72.298 -19.000  28.714  0.00  0.00    +0.116 C 
BRANCH  31  32
ATOM     32  C   UNL     1     -71.018 -18.344  29.214  0.00  0.00    +0.099 C 
BRANCH  32  33
ATOM     33  N   UNL     1     -70.088 -19.354  29.703  0.00  0.00    -0.312 NA
ATOM     34  H   UNL     1     -70.190 -20.209  29.157  0.00  0.00    +0.122 HD
BRANCH  33  35
ATOM     35  C   UNL     1     -68.713 -18.878  29.621  0.00  0.00    +0.108 C 
BRANCH  35  36
ATOM     36  C   UNL     1     -67.736 -20.035  29.756  0.00  0.00    +0.171 C 
BRANCH  36  37
ATOM     37  O   UNL     1     -68.471 -21.250  29.808  0.00  0.00    -0.394 OA
ATOM     38  H   UNL     1     -68.696 -21.497  28.894  0.00  0.00    +0.209 HD
ENDBRANCH  36  37
ENDBRANCH  35  36
ENDBRANCH  33  35
ENDBRANCH  32  33
ENDBRANCH  31  32
ENDBRANCH  29  31
ENDBRANCH  15  29
TORSDOF 16
ENDMDL
MODEL 9
REMARK VINA RESULT:      -0.0      3.045      4.024
REMARK  Name = 4212
REMARK  16 active torsions:
REMARK  status: ('A' for Active; 'I' for Inactive)
REMARK    1  A    between atoms: O_3  and  C_23
REMARK    2  A    between atoms: O_4  and  C_24
REMARK    3  A    between atoms: O_5  and  C_31
REMARK    4  A    between atoms: O_6  and  C_32
REMARK    5  A    between atoms: N_7  and  C_13
REMARK    6  A    between atoms: N_7  and  C_21
REMARK    7  A    between atoms: N_8  and  C_14
REMARK    8  A    between atoms: N_8  and  C_22
REMARK    9  A    between atoms: N_9  and  C_25
REMARK   10  A    between atoms: N_9  and  C_29
REMARK   11  A    between atoms: N_10  and  C_26
REMARK   12  A    between atoms: N_10  and  C_30
REMARK   13  A    between atoms: C_21  and  C_25
REMARK   14  A    between atoms: C_22  and  C_26
REMARK   15  A    between atoms: C_29  and  C_31
REMARK   16  A    between atoms: C_30  and  C_32
REMARK                            x       y       z     vdW  Elec       q    Type
REMARK                         _______ _______ _______ _____ _____    ______ ____
ROOT
ATOM      1  O   UNL     1     -72.321 -19.959  27.799  0.00  0.00    -0.286 OA
ATOM      2  C   UNL     1     -71.880 -20.244  26.693  0.00  0.00    +0.200 C 
ATOM      3  C   UNL     1     -72.805 -20.639  25.610  0.00  0.00    +0.078 A 
ATOM      4  C   UNL     1     -74.182 -20.682  25.860  0.00  0.00    +0.129 A 
ATOM      5  C   UNL     1     -75.062 -21.053  24.843  0.00  0.00    +0.050 A 
ATOM      6  C   UNL     1     -74.574 -21.380  23.580  0.00  0.00    +0.050 A 
ATOM      7  C   UNL     1     -73.203 -21.338  23.328  0.00  0.00    +0.129 A 
ATOM     12  C   UNL     1     -72.315 -20.967  24.345  0.00  0.00    +0.078 A 
ATOM     13  C   UNL     1     -70.865 -20.927  24.069  0.00  0.00    +0.200 C 
ATOM     14  C   UNL     1     -69.940 -20.532  25.151  0.00  0.00    +0.056 A 
ATOM     15  C   UNL     1     -68.562 -20.489  24.902  0.00  0.00    +0.039 A 
ATOM     16  C   UNL     1     -67.681 -20.118  25.918  0.00  0.00    +0.025 A 
ATOM     17  C   UNL     1     -68.170 -19.790  27.181  0.00  0.00    +0.025 A 
ATOM     18  C   UNL     1     -69.542 -19.832  27.433  0.00  0.00    +0.039 A 
ATOM     39  O   UNL     1     -70.448 -21.215  22.955  0.00  0.00    -0.286 OA
ATOM     40  C   UNL     1     -70.429 -20.204  26.416  0.00  0.00    +0.056 A 
ENDROOT
BRANCH   7   8
ATOM      8  O   UNL     1     -72.797 -21.670  22.069  0.00  0.00    -0.506 OA
ATOM      9  H   UNL     1     -72.697 -20.864  21.535  0.00  0.00    +0.292 HD
ENDBRANCH   7   8
BRANCH   4  10
ATOM     10  O   UNL     1     -74.730 -20.377  27.070  0.00  0.00    -0.506 OA
ATOM     11  H   UNL     1     -74.265 -19.634  27.482  0.00  0.00    +0.292 HD
ENDBRANCH   4  10
BRANCH  18  19
ATOM     19  N   UNL     1     -69.958 -19.484  28.740  0.00  0.00    -0.342 N 
ATOM     20  H   UNL     1     -70.505 -20.159  29.260  0.00  0.00    +0.146 HD
BRANCH  19  21
ATOM     21  C   UNL     1     -69.632 -18.233  29.347  0.00  0.00    +0.116 C 
BRANCH  21  22
ATOM     22  C   UNL     1     -70.157 -17.093  28.484  0.00  0.00    +0.099 C 
BRANCH  22  23
ATOM     23  N   UNL     1     -71.615 -17.085  28.487  0.00  0.00    -0.312 NA
ATOM     24  H   UNL     1     -71.955 -16.556  29.289  0.00  0.00    +0.122 HD
BRANCH  23  25
ATOM     25  C   UNL     1     -72.134 -16.503  27.256  0.00  0.00    +0.108 C 
BRANCH  25  26
ATOM     26  C   UNL     1     -73.624 -16.769  27.124  0.00  0.00    +0.171 C 
BRANCH  26  27
ATOM     27  O   UNL     1     -74.012 -17.706  28.119  0.00  0.00    -0.394 OA
ATOM     28  H   UNL     1     -74.758 -18.214  27.759  0.00  0.00    +0.209 HD
ENDBRANCH  26  27
ENDBRANCH  25  26
ENDBRANCH  23  25
ENDBRANCH  22  23
ENDBRANCH  21  22
ENDBRANCH  19  21
ENDBRANCH  18  19
BRANCH  15  29
ATOM     29  N   UNL     1     -67.989 -20.805  23.649  0.00  0.00    -0.342 N 
ATOM     30  H   UNL     1     -68.187 -21.715  23.251  0.00  0.00    +0.146 HD
BRANCH  29  31
ATOM     31  C   UNL     1     -67.154 -19.896  22.930  0.00  0.00    +0.116 C 
BRANCH  31  32
ATOM     32  C   UNL     1     -67.916 -18.606  22.658  0.00  0.00    +0.099 C 
BRANCH  32  33
ATOM     33  N   UNL     1     -69.008 -18.850  21.723  0.00  0.00    -0.312 NA
ATOM     34  H   UNL     1     -69.381 -19.788  21.866  0.00  0.00    +0.122 HD
BRANCH  33  35
ATOM     35  C   UNL     1     -70.068 -17.866  21.894  0.00  0.00    +0.108 C 
BRANCH  35  36
ATOM     36  C   UNL     1     -71.347 -18.330  21.215  0.00  0.00    +0.171 C 
BRANCH  36  37
ATOM     37  O   UNL     1     -71.141 -19.640  20.702  0.00  0.00    -0.394 OA
ATOM     38  H   UNL     1     -70.182 -19.793  20.661  0.00  0.00    +0.209 HD
ENDBRANCH  36  37
ENDBRANCH  35  36
ENDBRANCH  33  35
ENDBRANCH  32  33
ENDBRANCH  31  32
ENDBRANCH  29  31
ENDBRANCH  15  29
TORSDOF 16
ENDMDL
MODEL 10
REMARK VINA RESULT:      -0.0      1.762      2.395
REMARK  Name = 4212
REMARK  16 active torsions:
REMARK  status: ('A' for Active; 'I' for Inactive)
REMARK    1  A    between atoms: O_3  and  C_23
REMARK    2  A    between atoms: O_4  and  C_24
REMARK    3  A    between atoms: O_5  and  C_31
REMARK    4  A    between atoms: O_6  and  C_32
REMARK    5  A    between atoms: N_7  and  C_13
REMARK    6  A    between atoms: N_7  and  C_21
REMARK    7  A    between atoms: N_8  and  C_14
REMARK    8  A    between atoms: N_8  and  C_22
REMARK    9  A    between atoms: N_9  and  C_25
REMARK   10  A    between atoms: N_9  and  C_29
REMARK   11  A    between atoms: N_10  and  C_26
REMARK   12  A    between atoms: N_10  and  C_30
REMARK   13  A    between atoms: C_21  and  C_25
REMARK   14  A    between atoms: C_22  and  C_26
REMARK   15  A    between atoms: C_29  and  C_31
REMARK   16  A    between atoms: C_30  and  C_32
REMARK                            x       y       z     vdW  Elec       q    Type
REMARK                         _______ _______ _______ _____ _____    ______ ____
ROOT
ATOM      1  O   UNL     1     -70.582 -23.457  25.735  0.00  0.00    -0.286 OA
ATOM      2  C   UNL     1     -70.654 -22.976  24.612  0.00  0.00    +0.200 C 
ATOM      3  C   UNL     1     -71.944 -22.978  23.890  0.00  0.00    +0.078 A 
ATOM      4  C   UNL     1     -73.075 -23.533  24.500  0.00  0.00    +0.129 A 
ATOM      5  C   UNL     1     -74.297 -23.539  23.826  0.00  0.00    +0.050 A 
ATOM      6  C   UNL     1     -74.392 -22.995  22.548  0.00  0.00    +0.050 A 
ATOM      7  C   UNL     1     -73.268 -22.441  21.937  0.00  0.00    +0.129 A 
ATOM     12  C   UNL     1     -72.039 -22.433  22.609  0.00  0.00    +0.078 A 
ATOM     13  C   UNL     1     -70.853 -21.845  21.954  0.00  0.00    +0.200 C 
ATOM     14  C   UNL     1     -69.564 -21.843  22.675  0.00  0.00    +0.056 A 
ATOM     15  C   UNL     1     -68.431 -21.287  22.065  0.00  0.00    +0.039 A 
ATOM     16  C   UNL     1     -67.210 -21.281  22.739  0.00  0.00    +0.025 A 
ATOM     17  C   UNL     1     -67.114 -21.825  24.018  0.00  0.00    +0.025 A 
ATOM     18  C   UNL     1     -68.239 -22.379  24.629  0.00  0.00    +0.039 A 
ATOM     39  O   UNL     1     -70.950 -21.369  20.831  0.00  0.00    -0.286 OA
ATOM     40  C   UNL     1     -69.468 -22.388  23.956  0.00  0.00    +0.056 A 
ENDROOT
BRANCH   7   8
ATOM      8  O   UNL     1     -73.436 -21.925  20.686  0.00  0.00    -0.506 OA
ATOM      9  H   UNL     1     -72.595 -21.553  20.370  0.00  0.00    +0.292 HD
ENDBRANCH   7   8
BRANCH   4  10
ATOM     10  O   UNL     1     -73.055 -24.084  25.747  0.00  0.00    -0.506 OA
ATOM     11  H   UNL     1     -72.296 -24.676  25.850  0.00  0.00    +0.292 HD
ENDBRANCH   4  10
BRANCH  18  19
ATOM     19  N   UNL     1     -68.061 -22.910  25.928  0.00  0.00    -0.342 N 
ATOM     20  H   UNL     1     -68.298 -23.882  26.081  0.00  0.00    +0.146 HD
BRANCH  19  21
ATOM     21  C   UNL     1     -67.557 -22.135  27.016  0.00  0.00    +0.116 C 
BRANCH  21  22
ATOM     22  C   UNL     1     -68.444 -20.916  27.231  0.00  0.00    +0.099 C 
BRANCH  22  23
ATOM     23  N   UNL     1     -69.754 -21.323  27.725  0.00  0.00    -0.312 NA
ATOM     24  H   UNL     1     -69.718 -21.446  28.737  0.00  0.00    +0.122 HD
BRANCH  23  25
ATOM     25  C   UNL     1     -70.769 -20.335  27.384  0.00  0.00    +0.108 C 
BRANCH  25  26
ATOM     26  C   UNL     1     -72.162 -20.919  27.546  0.00  0.00    +0.171 C 
BRANCH  26  27
ATOM     27  O   UNL     1     -72.045 -22.298  27.873  0.00  0.00    -0.394 OA
ATOM     28  H   UNL     1     -72.349 -22.401  28.791  0.00  0.00    +0.209 HD
ENDBRANCH  26  27
ENDBRANCH  25  26
ENDBRANCH  23  25
ENDBRANCH  22  23
ENDBRANCH  21  22
ENDBRANCH  19  21
ENDBRANCH  18  19
BRANCH  15  29
ATOM     29  N   UNL     1     -68.447 -20.715  20.773  0.00  0.00    -0.342 N 
ATOM     30  H   UNL     1     -68.761 -21.291  20.001  0.00  0.00    +0.146 HD
BRANCH  29  31
ATOM     31  C   UNL     1     -68.044 -19.369  20.519  0.00  0.00    +0.116 C 
BRANCH  31  32
ATOM     32  C   UNL     1     -68.884 -18.416  21.359  0.00  0.00    +0.099 C 
BRANCH  32  33
ATOM     33  N   UNL     1     -70.266 -18.415  20.894  0.00  0.00    -0.312 NA
ATOM     34  H   UNL     1     -70.514 -19.341  20.549  0.00  0.00    +0.122 HD
BRANCH  33  35
ATOM     35  C   UNL     1     -71.174 -18.028  21.966  0.00  0.00    +0.108 C 
BRANCH  35  36
ATOM     36  C   UNL     1     -72.607 -18.394  21.613  0.00  0.00    +0.171 C 
BRANCH  36  37
ATOM     37  O   UNL     1     -72.607 -19.107  20.384  0.00  0.00    -0.394 OA
ATOM     38  H   UNL     1     -72.124 -18.570  19.732  0.00  0.00    +0.209 HD
ENDBRANCH  36  37
ENDBRANCH  35  36
ENDBRANCH  33  35
ENDBRANCH  32  33
ENDBRANCH  31  32
ENDBRANCH  29  31
ENDBRANCH  15  29
TORSDOF 16
ENDMDL
MODEL 11
REMARK VINA RESULT:      -0.0      2.859      5.890
REMARK  Name = 4212
REMARK  16 active torsions:
REMARK  status: ('A' for Active; 'I' for Inactive)
REMARK    1  A    between atoms: O_3  and  C_23
REMARK    2  A    between atoms: O_4  and  C_24
REMARK    3  A    between atoms: O_5  and  C_31
REMARK    4  A    between atoms: O_6  and  C_32
REMARK    5  A    between atoms: N_7  and  C_13
REMARK    6  A    between atoms: N_7  and  C_21
REMARK    7  A    between atoms: N_8  and  C_14
REMARK    8  A    between atoms: N_8  and  C_22
REMARK    9  A    between atoms: N_9  and  C_25
REMARK   10  A    between atoms: N_9  and  C_29
REMARK   11  A    between atoms: N_10  and  C_26
REMARK   12  A    between atoms: N_10  and  C_30
REMARK   13  A    between atoms: C_21  and  C_25
REMARK   14  A    between atoms: C_22  and  C_26
REMARK   15  A    between atoms: C_29  and  C_31
REMARK   16  A    between atoms: C_30  and  C_32
REMARK                            x       y       z     vdW  Elec       q    Type
REMARK                         _______ _______ _______ _____ _____    ______ ____
ROOT
ATOM      1  O   UNL     1     -67.252 -21.016  23.692  0.00  0.00    -0.286 OA
ATOM      2  C   UNL     1     -68.407 -20.617  23.758  0.00  0.00    +0.200 C 
ATOM      3  C   UNL     1     -68.745 -19.256  23.292  0.00  0.00    +0.078 A 
ATOM      4  C   UNL     1     -67.736 -18.433  22.777  0.00  0.00    +0.129 A 
ATOM      5  C   UNL     1     -68.046 -17.147  22.334  0.00  0.00    +0.050 A 
ATOM      6  C   UNL     1     -69.357 -16.680  22.404  0.00  0.00    +0.050 A 
ATOM      7  C   UNL     1     -70.364 -17.497  22.916  0.00  0.00    +0.129 A 
ATOM     12  C   UNL     1     -70.058 -18.789  23.362  0.00  0.00    +0.078 A 
ATOM     13  C   UNL     1     -71.131 -19.647  23.905  0.00  0.00    +0.200 C 
ATOM     14  C   UNL     1     -70.794 -21.008  24.371  0.00  0.00    +0.056 A 
ATOM     15  C   UNL     1     -71.803 -21.832  24.886  0.00  0.00    +0.039 A 
ATOM     16  C   UNL     1     -71.493 -23.119  25.329  0.00  0.00    +0.025 A 
ATOM     17  C   UNL     1     -70.182 -23.585  25.258  0.00  0.00    +0.025 A 
ATOM     18  C   UNL     1     -69.174 -22.767  24.746  0.00  0.00    +0.039 A 
ATOM     39  O   UNL     1     -72.279 -19.227  23.960  0.00  0.00    -0.286 OA
ATOM     40  C   UNL     1     -69.480 -21.475  24.300  0.00  0.00    +0.056 A 
ENDROOT
BRANCH   7   8
ATOM      8  O   UNL     1     -71.623 -16.976  22.952  0.00  0.00    -0.506 OA
ATOM      9  H   UNL     1     -71.614 -16.130  23.431  0.00  0.00    +0.292 HD
ENDBRANCH   7   8
BRANCH   4  10
ATOM     10  O   UNL     1     -66.433 -18.822  22.680  0.00  0.00    -0.506 OA
ATOM     11  H   UNL     1     -65.941 -18.233  22.090  0.00  0.00    +0.292 HD
ENDBRANCH   4  10
BRANCH  18  19
ATOM     19  N   UNL     1     -67.870 -23.314  24.707  0.00  0.00    -0.342 N 
ATOM     20  H   UNL     1     -67.133 -22.819  25.193  0.00  0.00    +0.146 HD
BRANCH  19  21
ATOM     21  C   UNL     1     -67.562 -24.528  24.022  0.00  0.00    +0.116 C 
BRANCH  21  22
ATOM     22  C   UNL     1     -67.958 -24.404  22.556  0.00  0.00    +0.099 C 
BRANCH  22  23
ATOM     23  N   UNL     1     -67.097 -23.442  21.878  0.00  0.00    -0.312 NA
ATOM     24  H   UNL     1     -66.236 -23.901  21.582  0.00  0.00    +0.122 HD
BRANCH  23  25
ATOM     25  C   UNL     1     -67.771 -22.864  20.724  0.00  0.00    +0.108 C 
BRANCH  25  26
ATOM     26  C   UNL     1     -67.051 -21.611  20.254  0.00  0.00    +0.171 C 
BRANCH  26  27
ATOM     27  O   UNL     1     -65.998 -21.320  21.164  0.00  0.00    -0.394 OA
ATOM     28  H   UNL     1     -66.304 -20.592  21.731  0.00  0.00    +0.209 HD
ENDBRANCH  26  27
ENDBRANCH  25  26
ENDBRANCH  23  25
ENDBRANCH  22  23
ENDBRANCH  21  22
ENDBRANCH  19  21
ENDBRANCH  18  19
BRANCH  15  29
ATOM     29  N   UNL     1     -73.155 -21.434  24.989  0.00  0.00    -0.342 N 
ATOM     30  H   UNL     1     -73.365 -20.596  25.518  0.00  0.00    +0.146 HD
BRANCH  29  31
ATOM     31  C   UNL     1     -74.223 -22.158  24.376  0.00  0.00    +0.116 C 
BRANCH  31  32
ATOM     32  C   UNL     1     -73.977 -22.263  22.877  0.00  0.00    +0.099 C 
BRANCH  32  33
ATOM     33  N   UNL     1     -74.098 -20.952  22.251  0.00  0.00    -0.312 NA
ATOM     34  H   UNL     1     -73.779 -20.231  22.897  0.00  0.00    +0.122 HD
BRANCH  33  35
ATOM     35  C   UNL     1     -73.321 -20.890  21.020  0.00  0.00    +0.108 C 
BRANCH  35  36
ATOM     36  C   UNL     1     -73.131 -19.448  20.577  0.00  0.00    +0.171 C 
BRANCH  36  37
ATOM     37  O   UNL     1     -73.675 -18.590  21.570  0.00  0.00    -0.394 OA
ATOM     38  H   UNL     1     -74.644 -18.623  21.489  0.00  0.00    +0.209 HD
ENDBRANCH  36  37
ENDBRANCH  35  36
ENDBRANCH  33  35
ENDBRANCH  32  33
ENDBRANCH  31  32
ENDBRANCH  29  31
ENDBRANCH  15  29
TORSDOF 16
ENDMDL
MODEL 12
REMARK VINA RESULT:       0.0      3.101      6.293
REMARK  Name = 4212
REMARK  16 active torsions:
REMARK  status: ('A' for Active; 'I' for Inactive)
REMARK    1  A    between atoms: O_3  and  C_23
REMARK    2  A    between atoms: O_4  and  C_24
REMARK    3  A    between atoms: O_5  and  C_31
REMARK    4  A    between atoms: O_6  and  C_32
REMARK    5  A    between atoms: N_7  and  C_13
REMARK    6  A    between atoms: N_7  and  C_21
REMARK    7  A    between atoms: N_8  and  C_14
REMARK    8  A    between atoms: N_8  and  C_22
REMARK    9  A    between atoms: N_9  and  C_25
REMARK   10  A    between atoms: N_9  and  C_29
REMARK   11  A    between atoms: N_10  and  C_26
REMARK   12  A    between atoms: N_10  and  C_30
REMARK   13  A    between atoms: C_21  and  C_25
REMARK   14  A    between atoms: C_22  and  C_26
REMARK   15  A    between atoms: C_29  and  C_31
REMARK   16  A    between atoms: C_30  and  C_32
REMARK                            x       y       z     vdW  Elec       q    Type
REMARK                         _______ _______ _______ _____ _____    ______ ____
ROOT
ATOM      1  O   UNL     1     -66.564 -19.597  24.563  0.00  0.00    -0.286 OA
ATOM      2  C   UNL     1     -67.618 -19.057  24.874  0.00  0.00    +0.200 C 
ATOM      3  C   UNL     1     -67.877 -17.659  24.474  0.00  0.00    +0.078 A 
ATOM      4  C   UNL     1     -66.910 -16.961  23.740  0.00  0.00    +0.129 A 
ATOM      5  C   UNL     1     -67.146 -15.640  23.357  0.00  0.00    +0.050 A 
ATOM      6  C   UNL     1     -68.341 -15.014  23.705  0.00  0.00    +0.050 A 
ATOM      7  C   UNL     1     -69.307 -15.706  24.436  0.00  0.00    +0.129 A 
ATOM     12  C   UNL     1     -69.074 -17.032  24.822  0.00  0.00    +0.078 A 
ATOM     13  C   UNL     1     -70.102 -17.757  25.597  0.00  0.00    +0.200 C 
ATOM     14  C   UNL     1     -69.844 -19.155  25.998  0.00  0.00    +0.056 A 
ATOM     15  C   UNL     1     -70.811 -19.854  26.732  0.00  0.00    +0.039 A 
ATOM     16  C   UNL     1     -70.575 -21.175  27.114  0.00  0.00    +0.025 A 
ATOM     17  C   UNL     1     -69.380 -21.801  26.766  0.00  0.00    +0.025 A 
ATOM     18  C   UNL     1     -68.414 -21.108  26.035  0.00  0.00    +0.039 A 
ATOM     39  O   UNL     1     -71.148 -17.197  25.896  0.00  0.00    -0.286 OA
ATOM     40  C   UNL     1     -68.646 -19.782  25.649  0.00  0.00    +0.056 A 
ENDROOT
BRANCH   7   8
ATOM      8  O   UNL     1     -70.452 -15.032  24.739  0.00  0.00    -0.506 OA
ATOM      9  H   UNL     1     -70.430 -14.750  25.669  0.00  0.00    +0.292 HD
ENDBRANCH   7   8
BRANCH   4  10
ATOM     10  O   UNL     1     -65.719 -17.508  23.367  0.00  0.00    -0.506 OA
ATOM     11  H   UNL     1     -65.018 -16.840  23.366  0.00  0.00    +0.292 HD
ENDBRANCH   4  10
BRANCH  18  19
ATOM     19  N   UNL     1     -67.229 -21.813  25.720  0.00  0.00    -0.342 N 
ATOM     20  H   UNL     1     -66.347 -21.421  26.027  0.00  0.00    +0.146 HD
BRANCH  19  21
ATOM     21  C   UNL     1     -67.232 -23.046  25.000  0.00  0.00    +0.116 C 
BRANCH  21  22
ATOM     22  C   UNL     1     -67.919 -22.852  23.655  0.00  0.00    +0.099 C 
BRANCH  22  23
ATOM     23  N   UNL     1     -67.113 -21.997  22.792  0.00  0.00    -0.312 NA
ATOM     24  H   UNL     1     -66.400 -22.555  22.323  0.00  0.00    +0.122 HD
BRANCH  23  25
ATOM     25  C   UNL     1     -67.944 -21.325  21.803  0.00  0.00    +0.108 C 
BRANCH  25  26
ATOM     26  C   UNL     1     -67.195 -20.163  21.173  0.00  0.00    +0.171 C 
BRANCH  26  27
ATOM     27  O   UNL     1     -65.940 -20.019  21.826  0.00  0.00    -0.394 OA
ATOM     28  H   UNL     1     -65.927 -19.135  22.229  0.00  0.00    +0.209 HD
ENDBRANCH  26  27
ENDBRANCH  25  26
ENDBRANCH  23  25
ENDBRANCH  22  23
ENDBRANCH  21  22
ENDBRANCH  19  21
ENDBRANCH  18  19
BRANCH  15  29
ATOM     29  N   UNL     1     -72.047 -19.291  27.122  0.00  0.00    -0.342 N 
ATOM     30  H   UNL     1     -72.031 -18.441  27.672  0.00  0.00    +0.146 HD
BRANCH  29  31
ATOM     31  C   UNL     1     -73.305 -19.868  26.767  0.00  0.00    +0.116 C 
BRANCH  31  32
ATOM     32  C   UNL     1     -73.408 -19.980  25.252  0.00  0.00    +0.099 C 
BRANCH  32  33
ATOM     33  N   UNL     1     -73.498 -18.656  24.650  0.00  0.00    -0.312 NA
ATOM     34  H   UNL     1     -72.956 -17.990  25.200  0.00  0.00    +0.122 HD
BRANCH  33  35
ATOM     35  C   UNL     1     -73.009 -18.675  23.278  0.00  0.00    +0.108 C 
BRANCH  35  36
ATOM     36  C   UNL     1     -72.740 -17.261  22.785  0.00  0.00    +0.171 C 
BRANCH  36  37
ATOM     37  O   UNL     1     -72.942 -16.356  23.861  0.00  0.00    -0.394 OA
ATOM     38  H   UNL     1     -72.219 -15.705  23.839  0.00  0.00    +0.209 HD
ENDBRANCH  36  37
ENDBRANCH  35  36
ENDBRANCH  33  35
ENDBRANCH  32  33
ENDBRANCH  31  32
ENDBRANCH  29  31
ENDBRANCH  15  29
TORSDOF 16
ENDMDL
MODEL 13
REMARK VINA RESULT:       0.0      2.351      4.202
REMARK  Name = 4212
REMARK  16 active torsions:
REMARK  status: ('A' for Active; 'I' for Inactive)
REMARK    1  A    between atoms: O_3  and  C_23
REMARK    2  A    between atoms: O_4  and  C_24
REMARK    3  A    between atoms: O_5  and  C_31
REMARK    4  A    between atoms: O_6  and  C_32
REMARK    5  A    between atoms: N_7  and  C_13
REMARK    6  A    between atoms: N_7  and  C_21
REMARK    7  A    between atoms: N_8  and  C_14
REMARK    8  A    between atoms: N_8  and  C_22
REMARK    9  A    between atoms: N_9  and  C_25
REMARK   10  A    between atoms: N_9  and  C_29
REMARK   11  A    between atoms: N_10  and  C_26
REMARK   12  A    between atoms: N_10  and  C_30
REMARK   13  A    between atoms: C_21  and  C_25
REMARK   14  A    between atoms: C_22  and  C_26
REMARK   15  A    between atoms: C_29  and  C_31
REMARK   16  A    between atoms: C_30  and  C_32
REMARK                            x       y       z     vdW  Elec       q    Type
REMARK                         _______ _______ _______ _____ _____    ______ ____
ROOT
ATOM      1  O   UNL     1     -69.183 -24.176  24.544  0.00  0.00    -0.286 OA
ATOM      2  C   UNL     1     -69.844 -23.173  24.777  0.00  0.00    +0.200 C 
ATOM      3  C   UNL     1     -70.994 -22.830  23.915  0.00  0.00    +0.078 A 
ATOM      4  C   UNL     1     -71.319 -23.660  22.835  0.00  0.00    +0.129 A 
ATOM      5  C   UNL     1     -72.403 -23.345  22.016  0.00  0.00    +0.050 A 
ATOM      6  C   UNL     1     -73.163 -22.206  22.270  0.00  0.00    +0.050 A 
ATOM      7  C   UNL     1     -72.843 -21.376  23.345  0.00  0.00    +0.129 A 
ATOM     12  C   UNL     1     -71.755 -21.688  24.169  0.00  0.00    +0.078 A 
ATOM     13  C   UNL     1     -71.422 -20.804  25.304  0.00  0.00    +0.200 C 
ATOM     14  C   UNL     1     -70.273 -21.145  26.167  0.00  0.00    +0.056 A 
ATOM     15  C   UNL     1     -69.948 -20.315  27.247  0.00  0.00    +0.039 A 
ATOM     16  C   UNL     1     -68.863 -20.630  28.067  0.00  0.00    +0.025 A 
ATOM     17  C   UNL     1     -68.104 -21.770  27.813  0.00  0.00    +0.025 A 
ATOM     18  C   UNL     1     -68.424 -22.600  26.738  0.00  0.00    +0.039 A 
ATOM     39  O   UNL     1     -72.098 -19.806  25.518  0.00  0.00    -0.286 OA
ATOM     40  C   UNL     1     -69.512 -22.287  25.912  0.00  0.00    +0.056 A 
ENDROOT
BRANCH   7   8
ATOM      8  O   UNL     1     -73.631 -20.280  23.534  0.00  0.00    -0.506 OA
ATOM      9  H   UNL     1     -74.112 -20.363  24.375  0.00  0.00    +0.292 HD
ENDBRANCH   7   8
BRANCH   4  10
ATOM     10  O   UNL     1     -70.620 -24.789  22.526  0.00  0.00    -0.506 OA
ATOM     11  H   UNL     1     -70.136 -25.117  23.298  0.00  0.00    +0.292 HD
ENDBRANCH   4  10
BRANCH  18  19
ATOM     19  N   UNL     1     -67.606 -23.738  26.547  0.00  0.00    -0.342 N 
ATOM     20  H   UNL     1     -68.051 -24.647  26.535  0.00  0.00    +0.146 HD
BRANCH  19  21
ATOM     21  C   UNL     1     -66.192 -23.651  26.364  0.00  0.00    +0.116 C 
BRANCH  21  22
ATOM     22  C   UNL     1     -65.885 -22.763  25.166  0.00  0.00    +0.099 C 
BRANCH  22  23
ATOM     23  N   UNL     1     -66.313 -23.410  23.932  0.00  0.00    -0.312 NA
ATOM     24  H   UNL     1     -67.146 -23.971  24.108  0.00  0.00    +0.122 HD
BRANCH  23  25
ATOM     25  C   UNL     1     -66.593 -22.424  22.897  0.00  0.00    +0.108 C 
BRANCH  25  26
ATOM     26  C   UNL     1     -67.393 -23.045  21.765  0.00  0.00    +0.171 C 
BRANCH  26  27
ATOM     27  O   UNL     1     -67.723 -24.382  22.118  0.00  0.00    -0.394 OA
ATOM     28  H   UNL     1     -67.887 -24.865  21.290  0.00  0.00    +0.209 HD
ENDBRANCH  26  27
ENDBRANCH  25  26
ENDBRANCH  23  25
ENDBRANCH  22  23
ENDBRANCH  21  22
ENDBRANCH  19  21
ENDBRANCH  18  19
BRANCH  15  29
ATOM     29  N   UNL     1     -70.669 -19.143  27.571  0.00  0.00    -0.342 N 
ATOM     30  H   UNL     1     -71.662 -19.231  27.753  0.00  0.00    +0.146 HD
BRANCH  29  31
ATOM     31  C   UNL     1     -70.056 -17.856  27.655  0.00  0.00    +0.116 C 
BRANCH  31  32
ATOM     32  C   UNL     1     -69.379 -17.525  26.332  0.00  0.00    +0.099 C 
BRANCH  32  33
ATOM     33  N   UNL     1     -70.377 -17.319  25.289  0.00  0.00    -0.312 NA
ATOM     34  H   UNL     1     -70.722 -16.360  25.327  0.00  0.00    +0.122 HD
BRANCH  33  35
ATOM     35  C   UNL     1     -69.817 -17.591  23.972  0.00  0.00    +0.108 C 
BRANCH  35  36
ATOM     36  C   UNL     1     -70.923 -17.757  22.942  0.00  0.00    +0.171 C 
BRANCH  36  37
ATOM     37  O   UNL     1     -72.178 -17.708  23.608  0.00  0.00    -0.394 OA
ATOM     38  H   UNL     1     -72.753 -18.380  23.203  0.00  0.00    +0.209 HD
ENDBRANCH  36  37
ENDBRANCH  35  36
ENDBRANCH  33  35
ENDBRANCH  32  33
ENDBRANCH  31  32
ENDBRANCH  29  31
ENDBRANCH  15  29
TORSDOF 16
ENDMDL
MODEL 14
REMARK VINA RESULT:       0.0      2.864      6.422
REMARK  Name = 4212
REMARK  16 active torsions:
REMARK  status: ('A' for Active; 'I' for Inactive)
REMARK    1  A    between atoms: O_3  and  C_23
REMARK    2  A    between atoms: O_4  and  C_24
REMARK    3  A    between atoms: O_5  and  C_31
REMARK    4  A    between atoms: O_6  and  C_32
REMARK    5  A    between atoms: N_7  and  C_13
REMARK    6  A    between atoms: N_7  and  C_21
REMARK    7  A    between atoms: N_8  and  C_14
REMARK    8  A    between atoms: N_8  and  C_22
REMARK    9  A    between atoms: N_9  and  C_25
REMARK   10  A    between atoms: N_9  and  C_29
REMARK   11  A    between atoms: N_10  and  C_26
REMARK   12  A    between atoms: N_10  and  C_30
REMARK   13  A    between atoms: C_21  and  C_25
REMARK   14  A    between atoms: C_22  and  C_26
REMARK   15  A    between atoms: C_29  and  C_31
REMARK   16  A    between atoms: C_30  and  C_32
REMARK                            x       y       z     vdW  Elec       q    Type
REMARK                         _______ _______ _______ _____ _____    ______ ____
ROOT
ATOM      1  O   UNL     1     -71.245 -17.833  24.789  0.00  0.00    -0.286 OA
ATOM      2  C   UNL     1     -70.796 -18.730  25.489  0.00  0.00    +0.200 C 
ATOM      3  C   UNL     1     -71.284 -18.901  26.873  0.00  0.00    +0.078 A 
ATOM      4  C   UNL     1     -72.261 -18.031  27.372  0.00  0.00    +0.129 A 
ATOM      5  C   UNL     1     -72.729 -18.185  28.678  0.00  0.00    +0.050 A 
ATOM      6  C   UNL     1     -72.226 -19.202  29.485  0.00  0.00    +0.050 A 
ATOM      7  C   UNL     1     -71.252 -20.070  28.992  0.00  0.00    +0.129 A 
ATOM     12  C   UNL     1     -70.779 -19.920  27.683  0.00  0.00    +0.078 A 
ATOM     13  C   UNL     1     -69.747 -20.843  27.168  0.00  0.00    +0.200 C 
ATOM     14  C   UNL     1     -69.258 -20.673  25.785  0.00  0.00    +0.056 A 
ATOM     15  C   UNL     1     -68.280 -21.543  25.285  0.00  0.00    +0.039 A 
ATOM     16  C   UNL     1     -67.813 -21.389  23.980  0.00  0.00    +0.025 A 
ATOM     17  C   UNL     1     -68.317 -20.373  23.172  0.00  0.00    +0.025 A 
ATOM     18  C   UNL     1     -69.291 -19.504  23.666  0.00  0.00    +0.039 A 
ATOM     39  O   UNL     1     -69.313 -21.733  27.887  0.00  0.00    -0.286 OA
ATOM     40  C   UNL     1     -69.763 -19.654  24.976  0.00  0.00    +0.056 A 
ENDROOT
BRANCH   7   8
ATOM      8  O   UNL     1     -70.807 -21.043  29.837  0.00  0.00    -0.506 OA
ATOM      9  H   UNL     1     -69.926 -21.343  29.556  0.00  0.00    +0.292 HD
ENDBRANCH   7   8
BRANCH   4  10
ATOM     10  O   UNL     1     -72.798 -17.014  26.640  0.00  0.00    -0.506 OA
ATOM     11  H   UNL     1     -73.371 -17.358  25.940  0.00  0.00    +0.292 HD
ENDBRANCH   4  10
BRANCH  18  19
ATOM     19  N   UNL     1     -69.753 -18.499  22.784  0.00  0.00    -0.342 N 
ATOM     20  H   UNL     1     -69.666 -17.533  23.076  0.00  0.00    +0.146 HD
BRANCH  19  21
ATOM     21  C   UNL     1     -70.322 -18.793  21.508  0.00  0.00    +0.116 C 
BRANCH  21  22
ATOM     22  C   UNL     1     -71.522 -19.715  21.683  0.00  0.00    +0.099 C 
BRANCH  22  23
ATOM     23  N   UNL     1     -72.610 -19.009  22.349  0.00  0.00    -0.312 NA
ATOM     24  H   UNL     1     -73.147 -18.479  21.664  0.00  0.00    +0.122 HD
BRANCH  23  25
ATOM     25  C   UNL     1     -73.485 -19.942  23.047  0.00  0.00    +0.108 C 
BRANCH  25  26
ATOM     26  C   UNL     1     -74.370 -19.208  24.040  0.00  0.00    +0.171 C 
BRANCH  26  27
ATOM     27  O   UNL     1     -73.990 -17.838  24.065  0.00  0.00    -0.394 OA
ATOM     28  H   UNL     1     -73.216 -17.766  24.649  0.00  0.00    +0.209 HD
ENDBRANCH  26  27
ENDBRANCH  25  26
ENDBRANCH  23  25
ENDBRANCH  22  23
ENDBRANCH  21  22
ENDBRANCH  19  21
ENDBRANCH  18  19
BRANCH  15  29
ATOM     29  N   UNL     1     -67.721 -22.599  26.040  0.00  0.00    -0.342 N 
ATOM     30  H   UNL     1     -67.277 -22.371  26.922  0.00  0.00    +0.146 HD
BRANCH  29  31
ATOM     31  C   UNL     1     -67.762 -23.961  25.612  0.00  0.00    +0.116 C 
BRANCH  31  32
ATOM     32  C   UNL     1     -69.208 -24.385  25.392  0.00  0.00    +0.099 C 
BRANCH  32  33
ATOM     33  N   UNL     1     -69.919 -24.442  26.663  0.00  0.00    -0.312 NA
ATOM     34  H   UNL     1     -69.557 -23.726  27.293  0.00  0.00    +0.122 HD
BRANCH  33  35
ATOM     35  C   UNL     1     -71.350 -24.249  26.467  0.00  0.00    +0.108 C 
BRANCH  35  36
ATOM     36  C   UNL     1     -72.033 -23.926  27.787  0.00  0.00    +0.171 C 
BRANCH  36  37
ATOM     37  O   UNL     1     -71.041 -23.796  28.795  0.00  0.00    -0.394 OA
ATOM     38  H   UNL     1     -70.493 -24.600  28.776  0.00  0.00    +0.209 HD
ENDBRANCH  36  37
ENDBRANCH  35  36
ENDBRANCH  33  35
ENDBRANCH  32  33
ENDBRANCH  31  32
ENDBRANCH  29  31
ENDBRANCH  15  29
TORSDOF 16
ENDMDL
MODEL 15
REMARK VINA RESULT:       0.0      2.776      5.261
REMARK  Name = 4212
REMARK  16 active torsions:
REMARK  status: ('A' for Active; 'I' for Inactive)
REMARK    1  A    between atoms: O_3  and  C_23
REMARK    2  A    between atoms: O_4  and  C_24
REMARK    3  A    between atoms: O_5  and  C_31
REMARK    4  A    between atoms: O_6  and  C_32
REMARK    5  A    between atoms: N_7  and  C_13
REMARK    6  A    between atoms: N_7  and  C_21
REMARK    7  A    between atoms: N_8  and  C_14
REMARK    8  A    between atoms: N_8  and  C_22
REMARK    9  A    between atoms: N_9  and  C_25
REMARK   10  A    between atoms: N_9  and  C_29
REMARK   11  A    between atoms: N_10  and  C_26
REMARK   12  A    between atoms: N_10  and  C_30
REMARK   13  A    between atoms: C_21  and  C_25
REMARK   14  A    between atoms: C_22  and  C_26
REMARK   15  A    between atoms: C_29  and  C_31
REMARK   16  A    between atoms: C_30  and  C_32
REMARK                            x       y       z     vdW  Elec       q    Type
REMARK                         _______ _______ _______ _____ _____    ______ ____
ROOT
ATOM      1  O   UNL     1     -71.909 -21.448  26.455  0.00  0.00    -0.286 OA
ATOM      2  C   UNL     1     -70.997 -20.644  26.309  0.00  0.00    +0.200 C 
ATOM      3  C   UNL     1     -70.167 -20.253  27.467  0.00  0.00    +0.078 A 
ATOM      4  C   UNL     1     -70.432 -20.808  28.725  0.00  0.00    +0.129 A 
ATOM      5  C   UNL     1     -69.652 -20.444  29.824  0.00  0.00    +0.050 A 
ATOM      6  C   UNL     1     -68.611 -19.531  29.672  0.00  0.00    +0.050 A 
ATOM      7  C   UNL     1     -68.344 -18.977  28.420  0.00  0.00    +0.129 A 
ATOM     12  C   UNL     1     -69.124 -19.337  27.315  0.00  0.00    +0.078 A 
ATOM     13  C   UNL     1     -68.836 -18.744  25.993  0.00  0.00    +0.200 C 
ATOM     14  C   UNL     1     -69.665 -19.135  24.835  0.00  0.00    +0.056 A 
ATOM     15  C   UNL     1     -69.401 -18.580  23.576  0.00  0.00    +0.039 A 
ATOM     16  C   UNL     1     -70.180 -18.944  22.477  0.00  0.00    +0.025 A 
ATOM     17  C   UNL     1     -71.220 -19.857  22.629  0.00  0.00    +0.025 A 
ATOM     18  C   UNL     1     -71.487 -20.412  23.882  0.00  0.00    +0.039 A 
ATOM     39  O   UNL     1     -67.918 -17.944  25.871  0.00  0.00    -0.286 OA
ATOM     40  C   UNL     1     -70.708 -20.051  24.988  0.00  0.00    +0.056 A 
ENDROOT
BRANCH   7   8
ATOM      8  O   UNL     1     -67.311 -18.091  28.345  0.00  0.00    -0.506 OA
ATOM      9  H   UNL     1     -66.508 -18.493  28.717  0.00  0.00    +0.292 HD
ENDBRANCH   7   8
BRANCH   4  10
ATOM     10  O   UNL     1     -71.433 -21.705  28.948  0.00  0.00    -0.506 OA
ATOM     11  H   UNL     1     -71.282 -22.521  28.451  0.00  0.00    +0.292 HD
ENDBRANCH   4  10
BRANCH  18  19
ATOM     19  N   UNL     1     -72.559 -21.333  23.954  0.00  0.00    -0.342 N 
ATOM     20  H   UNL     1     -73.314 -21.134  24.599  0.00  0.00    +0.146 HD
BRANCH  19  21
ATOM     21  C   UNL     1     -72.618 -22.514  23.154  0.00  0.00    +0.116 C 
BRANCH  21  22
ATOM     22  C   UNL     1     -71.379 -23.364  23.404  0.00  0.00    +0.099 C 
BRANCH  22  23
ATOM     23  N   UNL     1     -71.402 -23.908  24.756  0.00  0.00    -0.312 NA
ATOM     24  H   UNL     1     -71.962 -24.760  24.775  0.00  0.00    +0.122 HD
BRANCH  23  25
ATOM     25  C   UNL     1     -70.053 -24.194  25.225  0.00  0.00    +0.108 C 
BRANCH  25  26
ATOM     26  C   UNL     1     -70.038 -24.386  26.732  0.00  0.00    +0.171 C 
BRANCH  26  27
ATOM     27  O   UNL     1     -71.338 -24.115  27.241  0.00  0.00    -0.394 OA
ATOM     28  H   UNL     1     -71.374 -24.478  28.142  0.00  0.00    +0.209 HD
ENDBRANCH  26  27
ENDBRANCH  25  26
ENDBRANCH  23  25
ENDBRANCH  22  23
ENDBRANCH  21  22
ENDBRANCH  19  21
ENDBRANCH  18  19
BRANCH  15  29
ATOM     29  N   UNL     1     -68.364 -17.649  23.340  0.00  0.00    -0.342 N 
ATOM     30  H   UNL     1     -68.360 -16.793  23.880  0.00  0.00    +0.146 HD
BRANCH  29  31
ATOM     31  C   UNL     1     -67.330 -17.872  22.379  0.00  0.00    +0.116 C 
BRANCH  31  32
ATOM     32  C   UNL     1     -66.600 -19.169  22.704  0.00  0.00    +0.099 C 
BRANCH  32  33
ATOM     33  N   UNL     1     -65.844 -19.029  23.942  0.00  0.00    -0.312 NA
ATOM     34  H   UNL     1     -66.336 -18.403  24.578  0.00  0.00    +0.122 HD
BRANCH  33  35
ATOM     35  C   UNL     1     -65.646 -20.324  24.579  0.00  0.00    +0.108 C 
BRANCH  35  36
ATOM     36  C   UNL     1     -65.212 -20.150  26.026  0.00  0.00    +0.171 C 
BRANCH  36  37
ATOM     37  O   UNL     1     -65.242 -18.766  26.348  0.00  0.00    -0.394 OA
ATOM     38  H   UNL     1     -64.905 -18.667  27.255  0.00  0.00    +0.209 HD
ENDBRANCH  36  37
ENDBRANCH  35  36
ENDBRANCH  33  35
ENDBRANCH  32  33
ENDBRANCH  31  32
ENDBRANCH  29  31
ENDBRANCH  15  29
TORSDOF 16
ENDMDL
MODEL 16
REMARK VINA RESULT:       0.0      2.496      5.605
REMARK  Name = 4212
REMARK  16 active torsions:
REMARK  status: ('A' for Active; 'I' for Inactive)
REMARK    1  A    between atoms: O_3  and  C_23
REMARK    2  A    between atoms: O_4  and  C_24
REMARK    3  A    between atoms: O_5  and  C_31
REMARK    4  A    between atoms: O_6  and  C_32
REMARK    5  A    between atoms: N_7  and  C_13
REMARK    6  A    between atoms: N_7  and  C_21
REMARK    7  A    between atoms: N_8  and  C_14
REMARK    8  A    between atoms: N_8  and  C_22
REMARK    9  A    between atoms: N_9  and  C_25
REMARK   10  A    between atoms: N_9  and  C_29
REMARK   11  A    between atoms: N_10  and  C_26
REMARK   12  A    between atoms: N_10  and  C_30
REMARK   13  A    between atoms: C_21  and  C_25
REMARK   14  A    between atoms: C_22  and  C_26
REMARK   15  A    between atoms: C_29  and  C_31
REMARK   16  A    between atoms: C_30  and  C_32
REMARK                            x       y       z     vdW  Elec       q    Type
REMARK                         _______ _______ _______ _____ _____    ______ ____
ROOT
ATOM      1  O   UNL     1     -66.734 -21.222  25.033  0.00  0.00    -0.286 OA
ATOM      2  C   UNL     1     -67.950 -21.255  25.170  0.00  0.00    +0.200 C 
ATOM      3  C   UNL     1     -68.789 -20.205  24.558  0.00  0.00    +0.078 A 
ATOM      4  C   UNL     1     -68.184 -19.178  23.824  0.00  0.00    +0.129 A 
ATOM      5  C   UNL     1     -68.970 -18.182  23.242  0.00  0.00    +0.050 A 
ATOM      6  C   UNL     1     -70.354 -18.208  23.390  0.00  0.00    +0.050 A 
ATOM      7  C   UNL     1     -70.961 -19.229  24.121  0.00  0.00    +0.129 A 
ATOM     12  C   UNL     1     -70.177 -20.230  24.708  0.00  0.00    +0.078 A 
ATOM     13  C   UNL     1     -70.827 -21.307  25.481  0.00  0.00    +0.200 C 
ATOM     14  C   UNL     1     -69.989 -22.358  26.093  0.00  0.00    +0.056 A 
ATOM     15  C   UNL     1     -70.594 -23.385  26.828  0.00  0.00    +0.039 A 
ATOM     16  C   UNL     1     -69.808 -24.381  27.410  0.00  0.00    +0.025 A 
ATOM     17  C   UNL     1     -68.424 -24.356  27.261  0.00  0.00    +0.025 A 
ATOM     18  C   UNL     1     -67.817 -23.334  26.530  0.00  0.00    +0.039 A 
ATOM     39  O   UNL     1     -72.045 -21.320  25.604  0.00  0.00    -0.286 OA
ATOM     40  C   UNL     1     -68.601 -22.332  25.944  0.00  0.00    +0.056 A 
ENDROOT
BRANCH   7   8
ATOM      8  O   UNL     1     -72.320 -19.191  24.224  0.00  0.00    -0.506 OA
ATOM      9  H   UNL     1     -72.598 -18.329  24.575  0.00  0.00    +0.292 HD
ENDBRANCH   7   8
BRANCH   4  10
ATOM     10  O   UNL     1     -66.837 -19.088  23.638  0.00  0.00    -0.506 OA
ATOM     11  H   UNL     1     -66.632 -18.619  22.816  0.00  0.00    +0.292 HD
ENDBRANCH   4  10
BRANCH  18  19
ATOM     19  N   UNL     1     -66.407 -23.379  26.423  0.00  0.00    -0.342 N 
ATOM     20  H   UNL     1     -65.880 -22.579  26.750  0.00  0.00    +0.146 HD
BRANCH  19  21
ATOM     21  C   UNL     1     -65.709 -24.503  25.885  0.00  0.00    +0.116 C 
BRANCH  21  22
ATOM     22  C   UNL     1     -66.198 -24.780  24.470  0.00  0.00    +0.099 C 
BRANCH  22  23
ATOM     23  N   UNL     1     -65.789 -23.706  23.572  0.00  0.00    -0.312 NA
ATOM     24  H   UNL     1     -64.836 -23.871  23.250  0.00  0.00    +0.122 HD
BRANCH  23  25
ATOM     25  C   UNL     1     -66.688 -23.613  22.429  0.00  0.00    +0.108 C 
BRANCH  25  26
ATOM     26  C   UNL     1     -66.508 -22.286  21.712  0.00  0.00    +0.171 C 
BRANCH  26  27
ATOM     27  O   UNL     1     -65.590 -21.488  22.449  0.00  0.00    -0.394 OA
ATOM     28  H   UNL     1     -66.112 -20.832  22.941  0.00  0.00    +0.209 HD
ENDBRANCH  26  27
ENDBRANCH  25  26
ENDBRANCH  23  25
ENDBRANCH  22  23
ENDBRANCH  21  22
ENDBRANCH  19  21
ENDBRANCH  18  19
BRANCH  15  29
ATOM     29  N   UNL     1     -71.990 -23.482  27.024  0.00  0.00    -0.342 N 
ATOM     30  H   UNL     1     -72.467 -22.697  27.450  0.00  0.00    +0.146 HD
BRANCH  29  31
ATOM     31  C   UNL     1     -72.746 -24.633  26.642  0.00  0.00    +0.116 C 
BRANCH  31  32
ATOM     32  C   UNL     1     -72.557 -24.898  25.154  0.00  0.00    +0.099 C 
BRANCH  32  33
ATOM     33  N   UNL     1     -73.186 -23.844  24.367  0.00  0.00    -0.312 NA
ATOM     34  H   UNL     1     -73.122 -22.957  24.866  0.00  0.00    +0.122 HD
BRANCH  33  35
ATOM     35  C   UNL     1     -72.553 -23.723  23.061  0.00  0.00    +0.108 C 
BRANCH  35  36
ATOM     36  C   UNL     1     -72.930 -22.405  22.402  0.00  0.00    +0.171 C 
BRANCH  36  37
ATOM     37  O   UNL     1     -73.701 -21.640  23.319  0.00  0.00    -0.394 OA
ATOM     38  H   UNL     1     -74.592 -22.028  23.351  0.00  0.00    +0.209 HD
ENDBRANCH  36  37
ENDBRANCH  35  36
ENDBRANCH  33  35
ENDBRANCH  32  33
ENDBRANCH  31  32
ENDBRANCH  29  31
ENDBRANCH  15  29
TORSDOF 16
ENDMDL
MODEL 17
REMARK VINA RESULT:       0.0      3.428      5.670
REMARK  Name = 4212
REMARK  16 active torsions:
REMARK  status: ('A' for Active; 'I' for Inactive)
REMARK    1  A    between atoms: O_3  and  C_23
REMARK    2  A    between atoms: O_4  and  C_24
REMARK    3  A    between atoms: O_5  and  C_31
REMARK    4  A    between atoms: O_6  and  C_32
REMARK    5  A    between atoms: N_7  and  C_13
REMARK    6  A    between atoms: N_7  and  C_21
REMARK    7  A    between atoms: N_8  and  C_14
REMARK    8  A    between atoms: N_8  and  C_22
REMARK    9  A    between atoms: N_9  and  C_25
REMARK   10  A    between atoms: N_9  and  C_29
REMARK   11  A    between atoms: N_10  and  C_26
REMARK   12  A    between atoms: N_10  and  C_30
REMARK   13  A    between atoms: C_21  and  C_25
REMARK   14  A    between atoms: C_22  and  C_26
REMARK   15  A    between atoms: C_29  and  C_31
REMARK   16  A    between atoms: C_30  and  C_32
REMARK                            x       y       z     vdW  Elec       q    Type
REMARK                         _______ _______ _______ _____ _____    ______ ____
ROOT
ATOM      1  O   UNL     1     -72.168 -19.556  27.436  0.00  0.00    -0.286 OA
ATOM      2  C   UNL     1     -71.127 -19.893  26.889  0.00  0.00    +0.200 C 
ATOM      3  C   UNL     1     -69.828 -19.590  27.525  0.00  0.00    +0.078 A 
ATOM      4  C   UNL     1     -69.801 -18.917  28.753  0.00  0.00    +0.129 A 
ATOM      5  C   UNL     1     -68.579 -18.626  29.361  0.00  0.00    +0.050 A 
ATOM      6  C   UNL     1     -67.386 -19.004  28.749  0.00  0.00    +0.050 A 
ATOM      7  C   UNL     1     -67.409 -19.675  27.526  0.00  0.00    +0.129 A 
ATOM     12  C   UNL     1     -68.633 -19.968  26.911  0.00  0.00    +0.078 A 
ATOM     13  C   UNL     1     -68.648 -20.677  25.616  0.00  0.00    +0.200 C 
ATOM     14  C   UNL     1     -69.946 -20.981  24.980  0.00  0.00    +0.056 A 
ATOM     15  C   UNL     1     -69.973 -21.655  23.752  0.00  0.00    +0.039 A 
ATOM     16  C   UNL     1     -71.195 -21.945  23.144  0.00  0.00    +0.025 A 
ATOM     17  C   UNL     1     -72.388 -21.568  23.756  0.00  0.00    +0.025 A 
ATOM     18  C   UNL     1     -72.365 -20.897  24.979  0.00  0.00    +0.039 A 
ATOM     39  O   UNL     1     -67.593 -21.006  25.088  0.00  0.00    -0.286 OA
ATOM     40  C   UNL     1     -71.141 -20.603  25.594  0.00  0.00    +0.056 A 
ENDROOT
BRANCH   7   8
ATOM      8  O   UNL     1     -66.205 -20.015  26.986  0.00  0.00    -0.506 OA
ATOM      9  H   UNL     1     -66.242 -19.926  26.019  0.00  0.00    +0.292 HD
ENDBRANCH   7   8
BRANCH   4  10
ATOM     10  O   UNL     1     -70.927 -18.515  29.408  0.00  0.00    -0.506 OA
ATOM     11  H   UNL     1     -71.621 -19.188  29.346  0.00  0.00    +0.292 HD
ENDBRANCH   4  10
BRANCH  18  19
ATOM     19  N   UNL     1     -73.617 -20.549  25.537  0.00  0.00    -0.342 N 
ATOM     20  H   UNL     1     -73.832 -20.883  26.469  0.00  0.00    +0.146 HD
BRANCH  19  21
ATOM     21  C   UNL     1     -74.574 -19.745  24.846  0.00  0.00    +0.116 C 
BRANCH  21  22
ATOM     22  C   UNL     1     -73.946 -18.409  24.472  0.00  0.00    +0.099 C 
BRANCH  22  23
ATOM     23  N   UNL     1     -73.689 -17.617  25.669  0.00  0.00    -0.312 NA
ATOM     24  H   UNL     1     -73.452 -18.233  26.445  0.00  0.00    +0.122 HD
BRANCH  23  25
ATOM     25  C   UNL     1     -72.605 -16.670  25.443  0.00  0.00    +0.108 C 
BRANCH  25  26
ATOM     26  C   UNL     1     -72.083 -16.127  26.762  0.00  0.00    +0.171 C 
BRANCH  26  27
ATOM     27  O   UNL     1     -72.740 -16.803  27.827  0.00  0.00    -0.394 OA
ATOM     28  H   UNL     1     -73.693 -16.638  27.725  0.00  0.00    +0.209 HD
ENDBRANCH  26  27
ENDBRANCH  25  26
ENDBRANCH  23  25
ENDBRANCH  22  23
ENDBRANCH  21  22
ENDBRANCH  19  21
ENDBRANCH  18  19
BRANCH  15  29
ATOM     29  N   UNL     1     -68.808 -22.072  23.068  0.00  0.00    -0.342 N 
ATOM     30  H   UNL     1     -68.167 -22.688  23.553  0.00  0.00    +0.146 HD
BRANCH  29  31
ATOM     31  C   UNL     1     -68.508 -21.666  21.732  0.00  0.00    +0.116 C 
BRANCH  31  32
ATOM     32  C   UNL     1     -68.461 -20.145  21.659  0.00  0.00    +0.099 C 
BRANCH  32  33
ATOM     33  N   UNL     1     -67.310 -19.638  22.397  0.00  0.00    -0.312 NA
ATOM     34  H   UNL     1     -66.481 -19.669  21.805  0.00  0.00    +0.122 HD
BRANCH  33  35
ATOM     35  C   UNL     1     -67.544 -18.272  22.848  0.00  0.00    +0.108 C 
BRANCH  35  36
ATOM     36  C   UNL     1     -66.541 -17.883  23.922  0.00  0.00    +0.171 C 
BRANCH  36  37
ATOM     37  O   UNL     1     -65.750 -19.020  24.242  0.00  0.00    -0.394 OA
ATOM     38  H   UNL     1     -65.905 -19.232  25.179  0.00  0.00    +0.209 HD
ENDBRANCH  36  37
ENDBRANCH  35  36
ENDBRANCH  33  35
ENDBRANCH  32  33
ENDBRANCH  31  32
ENDBRANCH  29  31
ENDBRANCH  15  29
TORSDOF 16
ENDMDL
MODEL 18
REMARK VINA RESULT:       0.0      3.470      6.614
REMARK  Name = 4212
REMARK  16 active torsions:
REMARK  status: ('A' for Active; 'I' for Inactive)
REMARK    1  A    between atoms: O_3  and  C_23
REMARK    2  A    between atoms: O_4  and  C_24
REMARK    3  A    between atoms: O_5  and  C_31
REMARK    4  A    between atoms: O_6  and  C_32
REMARK    5  A    between atoms: N_7  and  C_13
REMARK    6  A    between atoms: N_7  and  C_21
REMARK    7  A    between atoms: N_8  and  C_14
REMARK    8  A    between atoms: N_8  and  C_22
REMARK    9  A    between atoms: N_9  and  C_25
REMARK   10  A    between atoms: N_9  and  C_29
REMARK   11  A    between atoms: N_10  and  C_26
REMARK   12  A    between atoms: N_10  and  C_30
REMARK   13  A    between atoms: C_21  and  C_25
REMARK   14  A    between atoms: C_22  and  C_26
REMARK   15  A    between atoms: C_29  and  C_31
REMARK   16  A    between atoms: C_30  and  C_32
REMARK                            x       y       z     vdW  Elec       q    Type
REMARK                         _______ _______ _______ _____ _____    ______ ____
ROOT
ATOM      1  O   UNL     1     -67.322 -20.392  24.703  0.00  0.00    -0.286 OA
ATOM      2  C   UNL     1     -68.100 -19.568  25.165  0.00  0.00    +0.200 C 
ATOM      3  C   UNL     1     -68.147 -19.335  26.623  0.00  0.00    +0.078 A 
ATOM      4  C   UNL     1     -67.298 -20.061  27.466  0.00  0.00    +0.129 A 
ATOM      5  C   UNL     1     -67.335 -19.847  28.844  0.00  0.00    +0.050 A 
ATOM      6  C   UNL     1     -68.217 -18.913  29.383  0.00  0.00    +0.050 A 
ATOM      7  C   UNL     1     -69.065 -18.187  28.547  0.00  0.00    +0.129 A 
ATOM     12  C   UNL     1     -69.031 -18.399  27.163  0.00  0.00    +0.078 A 
ATOM     13  C   UNL     1     -69.934 -17.627  26.284  0.00  0.00    +0.200 C 
ATOM     14  C   UNL     1     -69.887 -17.859  24.826  0.00  0.00    +0.056 A 
ATOM     15  C   UNL     1     -70.737 -17.133  23.982  0.00  0.00    +0.039 A 
ATOM     16  C   UNL     1     -70.699 -17.347  22.604  0.00  0.00    +0.025 A 
ATOM     17  C   UNL     1     -69.817 -18.281  22.065  0.00  0.00    +0.025 A 
ATOM     18  C   UNL     1     -68.969 -19.006  22.903  0.00  0.00    +0.039 A 
ATOM     39  O   UNL     1     -70.703 -16.808  26.769  0.00  0.00    -0.286 OA
ATOM     40  C   UNL     1     -69.003 -18.795  24.287  0.00  0.00    +0.056 A 
ENDROOT
BRANCH   7   8
ATOM      8  O   UNL     1     -69.899 -17.289  29.142  0.00  0.00    -0.506 OA
ATOM      9  H   UNL     1     -70.364 -17.715  29.882  0.00  0.00    +0.292 HD
ENDBRANCH   7   8
BRANCH   4  10
ATOM     10  O   UNL     1     -66.412 -20.991  27.010  0.00  0.00    -0.506 OA
ATOM     11  H   UNL     1     -66.202 -20.840  26.077  0.00  0.00    +0.292 HD
ENDBRANCH   4  10
BRANCH  18  19
ATOM     19  N   UNL     1     -68.103 -19.935  22.279  0.00  0.00    -0.342 N 
ATOM     20  H   UNL     1     -67.107 -19.839  22.440  0.00  0.00    +0.146 HD
BRANCH  19  21
ATOM     21  C   UNL     1     -68.575 -20.995  21.448  0.00  0.00    +0.116 C 
BRANCH  21  22
ATOM     22  C   UNL     1     -69.554 -21.861  22.231  0.00  0.00    +0.099 C 
BRANCH  22  23
ATOM     23  N   UNL     1     -68.857 -22.588  23.285  0.00  0.00    -0.312 NA
ATOM     24  H   UNL     1     -68.087 -22.023  23.642  0.00  0.00    +0.122 HD
BRANCH  23  25
ATOM     25  C   UNL     1     -69.766 -22.927  24.372  0.00  0.00    +0.108 C 
BRANCH  25  26
ATOM     26  C   UNL     1     -68.990 -23.327  25.615  0.00  0.00    +0.171 C 
BRANCH  26  27
ATOM     27  O   UNL     1     -67.603 -23.136  25.370  0.00  0.00    -0.394 OA
ATOM     28  H   UNL     1     -67.359 -23.725  24.635  0.00  0.00    +0.209 HD
ENDBRANCH  26  27
ENDBRANCH  25  26
ENDBRANCH  23  25
ENDBRANCH  22  23
ENDBRANCH  21  22
ENDBRANCH  19  21
ENDBRANCH  18  19
BRANCH  15  29
ATOM     29  N   UNL     1     -71.657 -16.167  24.451  0.00  0.00    -0.342 N 
ATOM     30  H   UNL     1     -71.297 -15.390  24.990  0.00  0.00    +0.146 HD
BRANCH  29  31
ATOM     31  C   UNL     1     -73.059 -16.246  24.190  0.00  0.00    +0.116 C 
BRANCH  31  32
ATOM     32  C   UNL     1     -73.603 -17.570  24.712  0.00  0.00    +0.099 C 
BRANCH  32  33
ATOM     33  N   UNL     1     -73.574 -17.592  26.169  0.00  0.00    -0.312 NA
ATOM     34  H   UNL     1     -74.403 -17.126  26.537  0.00  0.00    +0.122 HD
BRANCH  33  35
ATOM     35  C   UNL     1     -73.514 -18.959  26.667  0.00  0.00    +0.108 C 
BRANCH  35  36
ATOM     36  C   UNL     1     -73.069 -18.981  28.122  0.00  0.00    +0.171 C 
BRANCH  36  37
ATOM     37  O   UNL     1     -72.772 -17.652  28.528  0.00  0.00    -0.394 OA
ATOM     38  H   UNL     1     -73.039 -17.562  29.459  0.00  0.00    +0.209 HD
ENDBRANCH  36  37
ENDBRANCH  35  36
ENDBRANCH  33  35
ENDBRANCH  32  33
ENDBRANCH  31  32
ENDBRANCH  29  31
ENDBRANCH  15  29
TORSDOF 16
ENDMDL
MODEL 19
REMARK VINA RESULT:       0.0      3.314      5.250
REMARK  Name = 4212
REMARK  16 active torsions:
REMARK  status: ('A' for Active; 'I' for Inactive)
REMARK    1  A    between atoms: O_3  and  C_23
REMARK    2  A    between atoms: O_4  and  C_24
REMARK    3  A    between atoms: O_5  and  C_31
REMARK    4  A    between atoms: O_6  and  C_32
REMARK    5  A    between atoms: N_7  and  C_13
REMARK    6  A    between atoms: N_7  and  C_21
REMARK    7  A    between atoms: N_8  and  C_14
REMARK    8  A    between atoms: N_8  and  C_22
REMARK    9  A    between atoms: N_9  and  C_25
REMARK   10  A    between atoms: N_9  and  C_29
REMARK   11  A    between atoms: N_10  and  C_26
REMARK   12  A    between atoms: N_10  and  C_30
REMARK   13  A    between atoms: C_21  and  C_25
REMARK   14  A    between atoms: C_22  and  C_26
REMARK   15  A    between atoms: C_29  and  C_31
REMARK   16  A    between atoms: C_30  and  C_32
REMARK                            x       y       z     vdW  Elec       q    Type
REMARK                         _______ _______ _______ _____ _____    ______ ____
ROOT
ATOM      1  O   UNL     1     -74.104 -18.672  24.717  0.00  0.00    -0.286 OA
ATOM      2  C   UNL     1     -73.255 -19.377  24.187  0.00  0.00    +0.200 C 
ATOM      3  C   UNL     1     -72.860 -19.126  22.785  0.00  0.00    +0.078 A 
ATOM      4  C   UNL     1     -73.462 -18.081  22.074  0.00  0.00    +0.129 A 
ATOM      5  C   UNL     1     -73.095 -17.837  20.751  0.00  0.00    +0.050 A 
ATOM      6  C   UNL     1     -72.130 -18.631  20.135  0.00  0.00    +0.050 A 
ATOM      7  C   UNL     1     -71.527 -19.673  20.840  0.00  0.00    +0.129 A 
ATOM     12  C   UNL     1     -71.894 -19.923  22.168  0.00  0.00    +0.078 A 
ATOM     13  C   UNL     1     -71.252 -21.029  22.907  0.00  0.00    +0.200 C 
ATOM     14  C   UNL     1     -71.646 -21.280  24.308  0.00  0.00    +0.056 A 
ATOM     15  C   UNL     1     -71.044 -22.326  25.020  0.00  0.00    +0.039 A 
ATOM     16  C   UNL     1     -71.411 -22.570  26.344  0.00  0.00    +0.025 A 
ATOM     17  C   UNL     1     -72.376 -21.775  26.959  0.00  0.00    +0.025 A 
ATOM     18  C   UNL     1     -72.978 -20.732  26.254  0.00  0.00    +0.039 A 
ATOM     39  O   UNL     1     -70.405 -21.720  22.356  0.00  0.00    -0.286 OA
ATOM     40  C   UNL     1     -72.613 -20.483  24.925  0.00  0.00    +0.056 A 
ENDROOT
BRANCH   7   8
ATOM      8  O   UNL     1     -70.591 -20.408  20.175  0.00  0.00    -0.506 OA
ATOM      9  H   UNL     1     -70.321 -21.165  20.722  0.00  0.00    +0.292 HD
ENDBRANCH   7   8
BRANCH   4  10
ATOM     10  O   UNL     1     -74.413 -17.265  22.611  0.00  0.00    -0.506 OA
ATOM     11  H   UNL     1     -75.216 -17.763  22.822  0.00  0.00    +0.292 HD
ENDBRANCH   4  10
BRANCH  18  19
ATOM     19  N   UNL     1     -73.946 -19.971  26.949  0.00  0.00    -0.342 N 
ATOM     20  H   UNL     1     -74.884 -19.934  26.570  0.00  0.00    +0.146 HD
BRANCH  19  21
ATOM     21  C   UNL     1     -73.654 -19.266  28.157  0.00  0.00    +0.116 C 
BRANCH  21  22
ATOM     22  C   UNL     1     -72.507 -18.293  27.917  0.00  0.00    +0.099 C 
BRANCH  22  23
ATOM     23  N   UNL     1     -72.945 -17.193  27.067  0.00  0.00    -0.312 NA
ATOM     24  H   UNL     1     -73.542 -16.562  27.601  0.00  0.00    +0.122 HD
BRANCH  23  25
ATOM     25  C   UNL     1     -71.804 -16.460  26.535  0.00  0.00    +0.108 C 
BRANCH  25  26
ATOM     26  C   UNL     1     -72.151 -15.822  25.201  0.00  0.00    +0.171 C 
BRANCH  26  27
ATOM     27  O   UNL     1     -73.562 -15.862  25.027  0.00  0.00    -0.394 OA
ATOM     28  H   UNL     1     -73.807 -15.086  24.496  0.00  0.00    +0.209 HD
ENDBRANCH  26  27
ENDBRANCH  25  26
ENDBRANCH  23  25
ENDBRANCH  22  23
ENDBRANCH  21  22
ENDBRANCH  19  21
ENDBRANCH  18  19
BRANCH  15  29
ATOM     29  N   UNL     1     -70.058 -23.174  24.467  0.00  0.00    -0.342 N 
ATOM     30  H   UNL     1     -70.286 -23.682  23.621  0.00  0.00    +0.146 HD
BRANCH  29  31
ATOM     31  C   UNL     1     -68.764 -23.337  25.050  0.00  0.00    +0.116 C 
BRANCH  31  32
ATOM     32  C   UNL     1     -68.075 -21.983  25.153  0.00  0.00    +0.099 C 
BRANCH  32  33
ATOM     33  N   UNL     1     -67.767 -21.469  23.824  0.00  0.00    -0.312 NA
ATOM     34  H   UNL     1     -68.480 -21.773  23.163  0.00  0.00    +0.122 HD
BRANCH  33  35
ATOM     35  C   UNL     1     -67.692 -20.014  23.835  0.00  0.00    +0.108 C 
BRANCH  35  36
ATOM     36  C   UNL     1     -67.748 -19.464  22.418  0.00  0.00    +0.171 C 
BRANCH  36  37
ATOM     37  O   UNL     1     -67.965 -20.542  21.518  0.00  0.00    -0.394 OA
ATOM     38  H   UNL     1     -68.883 -20.481  21.202  0.00  0.00    +0.209 HD
ENDBRANCH  36  37
ENDBRANCH  35  36
ENDBRANCH  33  35
ENDBRANCH  32  33
ENDBRANCH  31  32
ENDBRANCH  29  31
ENDBRANCH  15  29
TORSDOF 16
ENDMDL
MODEL 20
REMARK VINA RESULT:       0.0      3.944      7.106
REMARK  Name = 4212
REMARK  16 active torsions:
REMARK  status: ('A' for Active; 'I' for Inactive)
REMARK    1  A    between atoms: O_3  and  C_23
REMARK    2  A    between atoms: O_4  and  C_24
REMARK    3  A    between atoms: O_5  and  C_31
REMARK    4  A    between atoms: O_6  and  C_32
REMARK    5  A    between atoms: N_7  and  C_13
REMARK    6  A    between atoms: N_7  and  C_21
REMARK    7  A    between atoms: N_8  and  C_14
REMARK    8  A    between atoms: N_8  and  C_22
REMARK    9  A    between atoms: N_9  and  C_25
REMARK   10  A    between atoms: N_9  and  C_29
REMARK   11  A    between atoms: N_10  and  C_26
REMARK   12  A    between atoms: N_10  and  C_30
REMARK   13  A    between atoms: C_21  and  C_25
REMARK   14  A    between atoms: C_22  and  C_26
REMARK   15  A    between atoms: C_29  and  C_31
REMARK   16  A    between atoms: C_30  and  C_32
REMARK                            x       y       z     vdW  Elec       q    Type
REMARK                         _______ _______ _______ _____ _____    ______ ____
ROOT
ATOM      1  O   UNL     1     -67.855 -19.436  26.490  0.00  0.00    -0.286 OA
ATOM      2  C   UNL     1     -68.981 -19.351  26.964  0.00  0.00    +0.200 C 
ATOM      3  C   UNL     1     -69.367 -18.150  27.734  0.00  0.00    +0.078 A 
ATOM      4  C   UNL     1     -68.439 -17.118  27.915  0.00  0.00    +0.129 A 
ATOM      5  C   UNL     1     -68.795 -15.980  28.640  0.00  0.00    +0.050 A 
ATOM      6  C   UNL     1     -70.072 -15.870  29.184  0.00  0.00    +0.050 A 
ATOM      7  C   UNL     1     -71.000 -16.896  29.006  0.00  0.00    +0.129 A 
ATOM     12  C   UNL     1     -70.647 -18.040  28.280  0.00  0.00    +0.078 A 
ATOM     13  C   UNL     1     -71.635 -19.123  28.097  0.00  0.00    +0.200 C 
ATOM     14  C   UNL     1     -71.249 -20.323  27.327  0.00  0.00    +0.056 A 
ATOM     15  C   UNL     1     -72.178 -21.356  27.146  0.00  0.00    +0.039 A 
ATOM     16  C   UNL     1     -71.822 -22.494  26.421  0.00  0.00    +0.025 A 
ATOM     17  C   UNL     1     -70.545 -22.603  25.876  0.00  0.00    +0.025 A 
ATOM     18  C   UNL     1     -69.617 -21.577  26.054  0.00  0.00    +0.039 A 
ATOM     39  O   UNL     1     -72.755 -19.014  28.579  0.00  0.00    -0.286 OA
ATOM     40  C   UNL     1     -69.969 -20.433  26.781  0.00  0.00    +0.056 A 
ENDROOT
BRANCH   7   8
ATOM      8  O   UNL     1     -72.231 -16.720  29.566  0.00  0.00    -0.506 OA
ATOM      9  H   UNL     1     -72.151 -16.179  30.369  0.00  0.00    +0.292 HD
ENDBRANCH   7   8
BRANCH   4  10
ATOM     10  O   UNL     1     -67.172 -17.158  27.412  0.00  0.00    -0.506 OA
ATOM     11  H   UNL     1     -67.096 -16.603  26.623  0.00  0.00    +0.292 HD
ENDBRANCH   4  10
BRANCH  18  19
ATOM     19  N   UNL     1     -68.342 -21.763  25.469  0.00  0.00    -0.342 N 
ATOM     20  H   UNL     1     -67.531 -21.719  26.073  0.00  0.00    +0.146 HD
BRANCH  19  21
ATOM     21  C   UNL     1     -68.161 -22.015  24.075  0.00  0.00    +0.116 C 
BRANCH  21  22
ATOM     22  C   UNL     1     -68.707 -20.843  23.268  0.00  0.00    +0.099 C 
BRANCH  22  23
ATOM     23  N   UNL     1     -67.885 -19.658  23.477  0.00  0.00    -0.312 NA
ATOM     24  H   UNL     1     -66.956 -19.810  23.086  0.00  0.00    +0.122 HD
BRANCH  23  25
ATOM     25  C   UNL     1     -68.495 -18.487  22.860  0.00  0.00    +0.108 C 
BRANCH  25  26
ATOM     26  C   UNL     1     -68.502 -17.314  23.826  0.00  0.00    +0.171 C 
BRANCH  26  27
ATOM     27  O   UNL     1     -67.270 -17.298  24.534  0.00  0.00    -0.394 OA
ATOM     28  H   UNL     1     -67.024 -16.365  24.659  0.00  0.00    +0.209 HD
ENDBRANCH  26  27
ENDBRANCH  25  26
ENDBRANCH  23  25
ENDBRANCH  22  23
ENDBRANCH  21  22
ENDBRANCH  19  21
ENDBRANCH  18  19
BRANCH  15  29
ATOM     29  N   UNL     1     -73.492 -21.320  27.665  0.00  0.00    -0.342 N 
ATOM     30  H   UNL     1     -73.606 -21.195  28.664  0.00  0.00    +0.146 HD
BRANCH  29  31
ATOM     31  C   UNL     1     -74.652 -21.447  26.842  0.00  0.00    +0.116 C 
BRANCH  31  32
ATOM     32  C   UNL     1     -74.637 -20.368  25.766  0.00  0.00    +0.099 C 
BRANCH  32  33
ATOM     33  N   UNL     1     -74.831 -19.053  26.365  0.00  0.00    -0.312 NA
ATOM     34  H   UNL     1     -74.407 -19.030  27.292  0.00  0.00    +0.122 HD
BRANCH  33  35
ATOM     35  C   UNL     1     -74.246 -18.011  25.530  0.00  0.00    +0.108 C 
BRANCH  35  36
ATOM     36  C   UNL     1     -74.107 -16.714  26.311  0.00  0.00    +0.171 C 
BRANCH  36  37
ATOM     37  O   UNL     1     -74.482 -16.951  27.661  0.00  0.00    -0.394 OA
ATOM     38  H   UNL     1     -74.862 -17.845  27.709  0.00  0.00    +0.209 HD
ENDBRANCH  36  37
ENDBRANCH  35  36
ENDBRANCH  33  35
ENDBRANCH  32  33
ENDBRANCH  31  32
ENDBRANCH  29  31
ENDBRANCH  15  29
TORSDOF 16
ENDMDL
